/*---------------------------------------------------------------------------*\
| =========                 |                                                 |
| \\      /  F ield         | OpenFOAM: The Open Source CFD Toolbox           |
|  \\    /   O peration     | Version:  v1706                                 |
|   \\  /    A nd           | Web:      www.OpenFOAM.com                      |
|    \\/     M anipulation  |                                                 |
\*---------------------------------------------------------------------------*/
Build  : v1706
Arch   : "LSB;label=32;scalar=64"
Exec   : icoFoam
Date   : Aug 29 2017
Time   : 20:00:36
Host   : "kali"
PID    : 4159
Case   : /root/Desktop/OpenFOAM/NonOffOpenFOAM/FoamCases/ppGrad
nProcs : 1
sigFpe : Enabling floating point exception trapping (FOAM_SIGFPE).
fileModificationChecking : Monitoring run-time modified files using timeStampMaster (fileModificationSkew 10)
allowSystemOperations : Allowing user-supplied system call operations

// * * * * * * * * * * * * * * * * * * * * * * * * * * * * * * * * * * * * * //
Create time

Create mesh for time = 0


PISO: Operating solver in PISO mode

Reading transportProperties

Reading field p

Reading field U

Reading/calculating face flux field phi


Starting time loop

Time = 0.005

Courant Number mean: 0 max: 0
DILUPBiCG:  Solving for Ux, Initial residual = 1, Final residual = 5.97726e-06, No Iterations 2
DILUPBiCG:  Solving for Uy, Initial residual = 0, Final residual = 0, No Iterations 0
DICPCG:  Solving for p, Initial residual = 1, Final residual = 6.33735e-07, No Iterations 23
time step continuity errors : sum local = 8.48286e-09, global = 5.45389e-11, cumulative = 5.45389e-11
DICPCG:  Solving for p, Initial residual = 0.207915, Final residual = 9.7421e-07, No Iterations 22
time step continuity errors : sum local = 3.15815e-08, global = 2.05573e-11, cumulative = 7.50962e-11
ExecutionTime = 0 s  ClockTime = 0 s

Time = 0.01

Courant Number mean: 0.0145953 max: 0.067909
DILUPBiCG:  Solving for Ux, Initial residual = 0.613252, Final residual = 6.01908e-08, No Iterations 3
DILUPBiCG:  Solving for Uy, Initial residual = 0.337924, Final residual = 5.33489e-06, No Iterations 2
DICPCG:  Solving for p, Initial residual = 0.505041, Final residual = 2.95052e-07, No Iterations 23
time step continuity errors : sum local = 4.44355e-09, global = -3.32994e-11, cumulative = 4.17968e-11
DICPCG:  Solving for p, Initial residual = 0.27675, Final residual = 1.25898e-07, No Iterations 23
time step continuity errors : sum local = 1.59816e-09, global = 1.88375e-11, cumulative = 6.06343e-11
ExecutionTime = 0 s  ClockTime = 0 s

Time = 0.015

Courant Number mean: 0.0219004 max: 0.0390123
DILUPBiCG:  Solving for Ux, Initial residual = 0.341151, Final residual = 1.15894e-07, No Iterations 3
DILUPBiCG:  Solving for Uy, Initial residual = 0.5543, Final residual = 1.88038e-07, No Iterations 3
DICPCG:  Solving for p, Initial residual = 0.245175, Final residual = 1.29936e-07, No Iterations 23
time step continuity errors : sum local = 1.69543e-09, global = 2.11727e-11, cumulative = 8.18071e-11
DICPCG:  Solving for p, Initial residual = 0.128833, Final residual = 5.09658e-07, No Iterations 22
time step continuity errors : sum local = 6.50688e-09, global = -7.9823e-11, cumulative = 1.98406e-12
ExecutionTime = 0 s  ClockTime = 0 s

Time = 0.02

Courant Number mean: 0.0314427 max: 0.0538004
DILUPBiCG:  Solving for Ux, Initial residual = 0.213597, Final residual = 1.23972e-07, No Iterations 3
DILUPBiCG:  Solving for Uy, Initial residual = 0.251673, Final residual = 1.90132e-07, No Iterations 3
DICPCG:  Solving for p, Initial residual = 0.154396, Final residual = 7.1507e-07, No Iterations 22
time step continuity errors : sum local = 8.06412e-09, global = -2.47775e-11, cumulative = -2.27935e-11
DICPCG:  Solving for p, Initial residual = 0.0768403, Final residual = 2.98513e-07, No Iterations 22
time step continuity errors : sum local = 3.26081e-09, global = 3.05637e-11, cumulative = 7.77029e-12
ExecutionTime = 0.01 s  ClockTime = 0 s

Time = 0.025

Courant Number mean: 0.0397395 max: 0.058349
DILUPBiCG:  Solving for Ux, Initial residual = 0.154996, Final residual = 1.72333e-07, No Iterations 3
DILUPBiCG:  Solving for Uy, Initial residual = 0.270823, Final residual = 4.37317e-07, No Iterations 3
DICPCG:  Solving for p, Initial residual = 0.08222, Final residual = 3.52331e-07, No Iterations 22
time step continuity errors : sum local = 3.81269e-09, global = 5.88173e-11, cumulative = 6.65876e-11
DICPCG:  Solving for p, Initial residual = 0.0417394, Final residual = 1.65255e-07, No Iterations 22
time step continuity errors : sum local = 1.76652e-09, global = -1.15677e-11, cumulative = 5.50199e-11
ExecutionTime = 0.01 s  ClockTime = 0 s

Time = 0.03

Courant Number mean: 0.0479868 max: 0.0685868
DILUPBiCG:  Solving for Ux, Initial residual = 0.120367, Final residual = 7.75696e-06, No Iterations 2
DILUPBiCG:  Solving for Uy, Initial residual = 0.187958, Final residual = 5.16046e-07, No Iterations 3
DICPCG:  Solving for p, Initial residual = 0.047807, Final residual = 1.88113e-07, No Iterations 22
time step continuity errors : sum local = 1.94519e-09, global = -1.57741e-11, cumulative = 3.92458e-11
DICPCG:  Solving for p, Initial residual = 0.0229135, Final residual = 9.63937e-08, No Iterations 22
time step continuity errors : sum local = 9.91452e-10, global = 5.32243e-12, cumulative = 4.45682e-11
ExecutionTime = 0.01 s  ClockTime = 0 s

Time = 0.035

Courant Number mean: 0.0556711 max: 0.0773043
DILUPBiCG:  Solving for Ux, Initial residual = 0.0975273, Final residual = 7.88374e-06, No Iterations 2
DILUPBiCG:  Solving for Uy, Initial residual = 0.167139, Final residual = 7.06101e-07, No Iterations 3
DICPCG:  Solving for p, Initial residual = 0.0245342, Final residual = 1.16789e-07, No Iterations 22
time step continuity errors : sum local = 1.19346e-09, global = 7.75695e-12, cumulative = 5.23252e-11
DICPCG:  Solving for p, Initial residual = 0.0123482, Final residual = 6.01355e-07, No Iterations 21
time step continuity errors : sum local = 6.11626e-09, global = -2.60262e-11, cumulative = 2.6299e-11
ExecutionTime = 0.01 s  ClockTime = 0 s

Time = 0.04

Courant Number mean: 0.0630577 max: 0.0872718
DILUPBiCG:  Solving for Ux, Initial residual = 0.081075, Final residual = 7.46487e-06, No Iterations 2
DILUPBiCG:  Solving for Uy, Initial residual = 0.146021, Final residual = 9.18603e-07, No Iterations 3
DICPCG:  Solving for p, Initial residual = 0.01388, Final residual = 6.51119e-07, No Iterations 21
time step continuity errors : sum local = 6.56657e-09, global = -2.87389e-11, cumulative = -2.43992e-12
DICPCG:  Solving for p, Initial residual = 0.00681458, Final residual = 3.38532e-07, No Iterations 21
time step continuity errors : sum local = 3.40636e-09, global = 1.37759e-11, cumulative = 1.13359e-11
ExecutionTime = 0.01 s  ClockTime = 0 s

Time = 0.045

Courant Number mean: 0.0700518 max: 0.0967504
DILUPBiCG:  Solving for Ux, Initial residual = 0.0686815, Final residual = 9.00891e-06, No Iterations 2
DILUPBiCG:  Solving for Uy, Initial residual = 0.128049, Final residual = 1.07604e-06, No Iterations 3
DICPCG:  Solving for p, Initial residual = 0.00698737, Final residual = 4.4352e-07, No Iterations 21
time step continuity errors : sum local = 4.45052e-09, global = 1.09011e-11, cumulative = 2.2237e-11
DICPCG:  Solving for p, Initial residual = 0.00363163, Final residual = 2.02536e-07, No Iterations 21
time step continuity errors : sum local = 2.0285e-09, global = -7.35067e-12, cumulative = 1.48863e-11
ExecutionTime = 0.01 s  ClockTime = 0 s

Time = 0.05

Courant Number mean: 0.0767313 max: 0.106583
DILUPBiCG:  Solving for Ux, Initial residual = 0.0591844, Final residual = 3.67073e-07, No Iterations 3
DILUPBiCG:  Solving for Uy, Initial residual = 0.123991, Final residual = 1.35669e-06, No Iterations 3
DICPCG:  Solving for p, Initial residual = 0.00425998, Final residual = 1.9945e-07, No Iterations 21
time step continuity errors : sum local = 1.99335e-09, global = -1.04815e-11, cumulative = 4.4048e-12
DICPCG:  Solving for p, Initial residual = 0.00201143, Final residual = 1.08196e-07, No Iterations 21
time step continuity errors : sum local = 1.07956e-09, global = 3.54232e-12, cumulative = 7.94712e-12
ExecutionTime = 0.01 s  ClockTime = 0 s

Time = 0.055

Courant Number mean: 0.0830852 max: 0.116042
DILUPBiCG:  Solving for Ux, Initial residual = 0.0516832, Final residual = 4.5323e-07, No Iterations 3
DILUPBiCG:  Solving for Uy, Initial residual = 0.11198, Final residual = 1.51412e-06, No Iterations 3
DICPCG:  Solving for p, Initial residual = 0.00205792, Final residual = 1.57818e-07, No Iterations 21
time step continuity errors : sum local = 1.57324e-09, global = 4.94282e-12, cumulative = 1.28899e-11
DICPCG:  Solving for p, Initial residual = 0.00103248, Final residual = 6.10794e-08, No Iterations 21
time step continuity errors : sum local = 6.08339e-10, global = -2.41466e-12, cumulative = 1.04753e-11
ExecutionTime = 0.01 s  ClockTime = 0 s

Time = 0.06

Courant Number mean: 0.0891433 max: 0.125187
DILUPBiCG:  Solving for Ux, Initial residual = 0.0456198, Final residual = 5.35808e-07, No Iterations 3
DILUPBiCG:  Solving for Uy, Initial residual = 0.107286, Final residual = 1.76941e-06, No Iterations 3
DICPCG:  Solving for p, Initial residual = 0.00145822, Final residual = 3.7098e-07, No Iterations 20
time step continuity errors : sum local = 3.69007e-09, global = 3.79515e-11, cumulative = 4.84268e-11
DICPCG:  Solving for p, Initial residual = 0.000599327, Final residual = 5.39985e-07, No Iterations 20
time step continuity errors : sum local = 5.3658e-09, global = -1.80728e-10, cumulative = -1.32301e-10
ExecutionTime = 0.01 s  ClockTime = 0 s

Time = 0.065

Courant Number mean: 0.0949144 max: 0.133963
DILUPBiCG:  Solving for Ux, Initial residual = 0.0406207, Final residual = 6.1076e-07, No Iterations 3
DILUPBiCG:  Solving for Uy, Initial residual = 0.099719, Final residual = 1.9162e-06, No Iterations 3
DICPCG:  Solving for p, Initial residual = 0.000907464, Final residual = 5.92555e-08, No Iterations 21
time step continuity errors : sum local = 5.88549e-10, global = 1.59895e-13, cumulative = -1.32141e-10
DICPCG:  Solving for p, Initial residual = 0.000291565, Final residual = 3.96368e-07, No Iterations 20
time step continuity errors : sum local = 3.93427e-09, global = 1.48997e-10, cumulative = 1.68556e-11
ExecutionTime = 0.02 s  ClockTime = 0 s

Time = 0.07

Courant Number mean: 0.100415 max: 0.142389
DILUPBiCG:  Solving for Ux, Initial residual = 0.0364183, Final residual = 6.80528e-07, No Iterations 3
DILUPBiCG:  Solving for Uy, Initial residual = 0.0944235, Final residual = 2.11933e-06, No Iterations 3
DICPCG:  Solving for p, Initial residual = 0.00071382, Final residual = 3.21888e-07, No Iterations 20
time step continuity errors : sum local = 3.19273e-09, global = -5.92011e-11, cumulative = -4.23455e-11
DICPCG:  Solving for p, Initial residual = 0.000182972, Final residual = 5.60093e-07, No Iterations 19
time step continuity errors : sum local = 5.55187e-09, global = -2.49671e-10, cumulative = -2.92017e-10
ExecutionTime = 0.02 s  ClockTime = 0 s

Time = 0.075

Courant Number mean: 0.105657 max: 0.150456
DILUPBiCG:  Solving for Ux, Initial residual = 0.0328395, Final residual = 7.42335e-07, No Iterations 3
DILUPBiCG:  Solving for Uy, Initial residual = 0.0886156, Final residual = 2.25175e-06, No Iterations 3
DICPCG:  Solving for p, Initial residual = 0.000542936, Final residual = 5.01499e-07, No Iterations 20
time step continuity errors : sum local = 4.96895e-09, global = 1.7384e-10, cumulative = -1.18177e-10
DICPCG:  Solving for p, Initial residual = 8.36327e-05, Final residual = 8.66994e-07, No Iterations 17
time step continuity errors : sum local = 8.58605e-09, global = -1.44089e-09, cumulative = -1.55906e-09
ExecutionTime = 0.02 s  ClockTime = 0 s

Time = 0.08

Courant Number mean: 0.110653 max: 0.158175
DILUPBiCG:  Solving for Ux, Initial residual = 0.0297707, Final residual = 8.01275e-07, No Iterations 3
DILUPBiCG:  Solving for Uy, Initial residual = 0.0835466, Final residual = 2.39249e-06, No Iterations 3
DICPCG:  Solving for p, Initial residual = 0.000470355, Final residual = 3.05077e-07, No Iterations 20
time step continuity errors : sum local = 3.01991e-09, global = 5.57948e-12, cumulative = -1.55348e-09
DICPCG:  Solving for p, Initial residual = 6.10205e-05, Final residual = 2.39124e-07, No Iterations 19
time step continuity errors : sum local = 2.36599e-09, global = -1.50135e-10, cumulative = -1.70362e-09
ExecutionTime = 0.02 s  ClockTime = 0 s

Time = 0.085

Courant Number mean: 0.115415 max: 0.165551
DILUPBiCG:  Solving for Ux, Initial residual = 0.0271132, Final residual = 8.59564e-07, No Iterations 3
DILUPBiCG:  Solving for Uy, Initial residual = 0.0786983, Final residual = 2.46509e-06, No Iterations 3
DICPCG:  Solving for p, Initial residual = 0.000379268, Final residual = 5.29144e-07, No Iterations 19
time step continuity errors : sum local = 5.23385e-09, global = -2.22805e-10, cumulative = -1.92642e-09
DICPCG:  Solving for p, Initial residual = 3.07327e-05, Final residual = 9.66868e-07, No Iterations 17
time step continuity errors : sum local = 9.55991e-09, global = 3.60529e-10, cumulative = -1.5659e-09
ExecutionTime = 0.02 s  ClockTime = 0 s

Time = 0.09

Courant Number mean: 0.119954 max: 0.172598
DILUPBiCG:  Solving for Ux, Initial residual = 0.0247919, Final residual = 9.15245e-07, No Iterations 3
DILUPBiCG:  Solving for Uy, Initial residual = 0.0748728, Final residual = 2.65398e-06, No Iterations 3
DICPCG:  Solving for p, Initial residual = 0.000333625, Final residual = 2.43113e-07, No Iterations 20
time step continuity errors : sum local = 2.40306e-09, global = 1.75865e-11, cumulative = -1.54831e-09
DICPCG:  Solving for p, Initial residual = 2.55721e-05, Final residual = 9.63357e-07, No Iterations 18
time step continuity errors : sum local = 9.51925e-09, global = -3.94131e-10, cumulative = -1.94244e-09
ExecutionTime = 0.02 s  ClockTime = 0 s

Time = 0.095

Courant Number mean: 0.124279 max: 0.179325
DILUPBiCG:  Solving for Ux, Initial residual = 0.0227475, Final residual = 9.74741e-07, No Iterations 3
DILUPBiCG:  Solving for Uy, Initial residual = 0.0720589, Final residual = 2.71974e-06, No Iterations 3
DICPCG:  Solving for p, Initial residual = 0.00028038, Final residual = 2.25804e-07, No Iterations 20
time step continuity errors : sum local = 2.23069e-09, global = 2.88608e-11, cumulative = -1.91358e-09
DICPCG:  Solving for p, Initial residual = 1.65974e-05, Final residual = 3.38309e-07, No Iterations 18
time step continuity errors : sum local = 3.3412e-09, global = -4.50687e-10, cumulative = -2.36427e-09
ExecutionTime = 0.02 s  ClockTime = 0 s

Time = 0.1

Courant Number mean: 0.128402 max: 0.185744
DILUPBiCG:  Solving for Ux, Initial residual = 0.0209227, Final residual = 1.03356e-06, No Iterations 3
DILUPBiCG:  Solving for Uy, Initial residual = 0.068386, Final residual = 2.87421e-06, No Iterations 3
DICPCG:  Solving for p, Initial residual = 0.000243841, Final residual = 9.48011e-07, No Iterations 19
time step continuity errors : sum local = 9.36074e-09, global = 2.42471e-09, cumulative = 6.04435e-11
DICPCG:  Solving for p, Initial residual = 1.53114e-05, Final residual = 5.32568e-07, No Iterations 18
time step continuity errors : sum local = 5.25739e-09, global = -5.19613e-10, cumulative = -4.5917e-10
ExecutionTime = 0.02 s  ClockTime = 0 s

Time = 0.105

Courant Number mean: 0.132331 max: 0.191868
DILUPBiCG:  Solving for Ux, Initial residual = 0.0192978, Final residual = 1.1e-06, No Iterations 3
DILUPBiCG:  Solving for Uy, Initial residual = 0.0671132, Final residual = 3.10513e-06, No Iterations 3
DICPCG:  Solving for p, Initial residual = 0.000210067, Final residual = 6.53791e-07, No Iterations 19
time step continuity errors : sum local = 6.45292e-09, global = 2.06089e-09, cumulative = 1.60172e-09
DICPCG:  Solving for p, Initial residual = 1.20281e-05, Final residual = 8.84821e-07, No Iterations 17
time step continuity errors : sum local = 8.73142e-09, global = -1.43207e-09, cumulative = 1.6965e-10
ExecutionTime = 0.03 s  ClockTime = 0 s

Time = 0.11

Courant Number mean: 0.136076 max: 0.19771
DILUPBiCG:  Solving for Ux, Initial residual = 0.017844, Final residual = 1.17046e-06, No Iterations 3
DILUPBiCG:  Solving for Uy, Initial residual = 0.0648324, Final residual = 3.25237e-06, No Iterations 3
DICPCG:  Solving for p, Initial residual = 0.000182952, Final residual = 5.90642e-07, No Iterations 19
time step continuity errors : sum local = 5.82757e-09, global = 1.87887e-09, cumulative = 2.04852e-09
DICPCG:  Solving for p, Initial residual = 1.13265e-05, Final residual = 8.28521e-07, No Iterations 17
time step continuity errors : sum local = 8.17316e-09, global = -1.37102e-09, cumulative = 6.77498e-10
ExecutionTime = 0.03 s  ClockTime = 0 s

Time = 0.115

Courant Number mean: 0.139645 max: 0.203281
DILUPBiCG:  Solving for Ux, Initial residual = 0.016537, Final residual = 1.24956e-06, No Iterations 3
DILUPBiCG:  Solving for Uy, Initial residual = 0.0635412, Final residual = 3.42669e-06, No Iterations 3
DICPCG:  Solving for p, Initial residual = 0.000158979, Final residual = 9.7952e-07, No Iterations 17
time step continuity errors : sum local = 9.66146e-09, global = 3.07258e-09, cumulative = 3.75007e-09
DICPCG:  Solving for p, Initial residual = 9.47623e-06, Final residual = 6.50227e-07, No Iterations 9
time step continuity errors : sum local = 6.4125e-09, global = -1.62724e-09, cumulative = 2.12284e-09
ExecutionTime = 0.03 s  ClockTime = 0 s

Time = 0.12

Courant Number mean: 0.143047 max: 0.208592
DILUPBiCG:  Solving for Ux, Initial residual = 0.0153569, Final residual = 1.33687e-06, No Iterations 3
DILUPBiCG:  Solving for Uy, Initial residual = 0.061752, Final residual = 3.72805e-06, No Iterations 3
DICPCG:  Solving for p, Initial residual = 0.000139387, Final residual = 9.70263e-07, No Iterations 14
time step continuity errors : sum local = 9.5676e-09, global = -2.49853e-09, cumulative = -3.75692e-10
DICPCG:  Solving for p, Initial residual = 8.98504e-06, Final residual = 9.30766e-07, No Iterations 8
time step continuity errors : sum local = 9.17688e-09, global = 1.68719e-09, cumulative = 1.3115e-09
ExecutionTime = 0.03 s  ClockTime = 0 s

Time = 0.125

Courant Number mean: 0.14629 max: 0.213657
DILUPBiCG:  Solving for Ux, Initial residual = 0.0142872, Final residual = 1.43367e-06, No Iterations 3
DILUPBiCG:  Solving for Uy, Initial residual = 0.061033, Final residual = 3.8391e-06, No Iterations 3
DICPCG:  Solving for p, Initial residual = 0.000120609, Final residual = 8.79492e-07, No Iterations 17
time step continuity errors : sum local = 8.67049e-09, global = 1.89102e-09, cumulative = 3.20252e-09
DICPCG:  Solving for p, Initial residual = 7.32077e-06, Final residual = 5.81141e-07, No Iterations 14
time step continuity errors : sum local = 5.72852e-09, global = 5.91256e-10, cumulative = 3.79377e-09
ExecutionTime = 0.03 s  ClockTime = 0 s

Time = 0.13

Courant Number mean: 0.14938 max: 0.218485
DILUPBiCG:  Solving for Ux, Initial residual = 0.0133142, Final residual = 1.54303e-06, No Iterations 3
DILUPBiCG:  Solving for Uy, Initial residual = 0.0602481, Final residual = 4.13148e-06, No Iterations 3
DICPCG:  Solving for p, Initial residual = 0.00010688, Final residual = 6.11133e-07, No Iterations 10
time step continuity errors : sum local = 6.02365e-09, global = -5.23439e-10, cumulative = 3.27033e-09
DICPCG:  Solving for p, Initial residual = 6.80546e-06, Final residual = 9.30537e-07, No Iterations 6
time step continuity errors : sum local = 9.17092e-09, global = 1.0222e-09, cumulative = 4.29253e-09
ExecutionTime = 0.03 s  ClockTime = 0 s

Time = 0.135

Courant Number mean: 0.152325 max: 0.223087
DILUPBiCG:  Solving for Ux, Initial residual = 0.0124262, Final residual = 1.67305e-06, No Iterations 3
DILUPBiCG:  Solving for Uy, Initial residual = 0.0591737, Final residual = 4.26611e-06, No Iterations 3
DICPCG:  Solving for p, Initial residual = 9.40945e-05, Final residual = 9.55652e-07, No Iterations 15
time step continuity errors : sum local = 9.41775e-09, global = 1.65201e-09, cumulative = 5.94454e-09
DICPCG:  Solving for p, Initial residual = 7.63338e-06, Final residual = 7.0821e-07, No Iterations 8
time step continuity errors : sum local = 6.97862e-09, global = -3.04663e-09, cumulative = 2.89791e-09
ExecutionTime = 0.03 s  ClockTime = 0 s

Time = 0.14

Courant Number mean: 0.155132 max: 0.227474
DILUPBiCG:  Solving for Ux, Initial residual = 0.0116136, Final residual = 1.82004e-06, No Iterations 3
DILUPBiCG:  Solving for Uy, Initial residual = 0.0578439, Final residual = 4.45852e-06, No Iterations 3
DICPCG:  Solving for p, Initial residual = 8.24539e-05, Final residual = 8.36332e-07, No Iterations 13
time step continuity errors : sum local = 8.2406e-09, global = 6.29562e-10, cumulative = 3.52748e-09
DICPCG:  Solving for p, Initial residual = 6.89745e-06, Final residual = 7.93242e-07, No Iterations 12
time step continuity errors : sum local = 7.81539e-09, global = 8.95786e-10, cumulative = 4.42326e-09
ExecutionTime = 0.03 s  ClockTime = 0 s

Time = 0.145

Courant Number mean: 0.157808 max: 0.231656
DILUPBiCG:  Solving for Ux, Initial residual = 0.010868, Final residual = 1.98549e-06, No Iterations 3
DILUPBiCG:  Solving for Uy, Initial residual = 0.0567419, Final residual = 4.87253e-06, No Iterations 3
DICPCG:  Solving for p, Initial residual = 7.34963e-05, Final residual = 9.14161e-07, No Iterations 8
time step continuity errors : sum local = 9.00626e-09, global = 1.152e-09, cumulative = 5.57526e-09
DICPCG:  Solving for p, Initial residual = 6.84754e-06, Final residual = 7.12651e-07, No Iterations 7
time step continuity errors : sum local = 7.0205e-09, global = 2.78711e-09, cumulative = 8.36238e-09
ExecutionTime = 0.03 s  ClockTime = 0 s

Time = 0.15

Courant Number mean: 0.160358 max: 0.235642
DILUPBiCG:  Solving for Ux, Initial residual = 0.010182, Final residual = 2.16346e-06, No Iterations 3
DILUPBiCG:  Solving for Uy, Initial residual = 0.0590558, Final residual = 5.81944e-06, No Iterations 3
DICPCG:  Solving for p, Initial residual = 6.51795e-05, Final residual = 8.90723e-07, No Iterations 5
time step continuity errors : sum local = 8.77431e-09, global = 1.403e-09, cumulative = 9.76538e-09
DICPCG:  Solving for p, Initial residual = 5.65896e-06, Final residual = 8.45607e-07, No Iterations 5
time step continuity errors : sum local = 8.32936e-09, global = 3.14937e-09, cumulative = 1.29148e-08
ExecutionTime = 0.03 s  ClockTime = 0 s

Time = 0.155

Courant Number mean: 0.162788 max: 0.239442
DILUPBiCG:  Solving for Ux, Initial residual = 0.00954964, Final residual = 2.35416e-06, No Iterations 3
DILUPBiCG:  Solving for Uy, Initial residual = 0.0553717, Final residual = 5.14085e-06, No Iterations 3
DICPCG:  Solving for p, Initial residual = 5.84784e-05, Final residual = 8.88128e-07, No Iterations 6
time step continuity errors : sum local = 8.74785e-09, global = 3.36428e-09, cumulative = 1.6279e-08
DICPCG:  Solving for p, Initial residual = 7.08573e-06, Final residual = 9.19167e-07, No Iterations 11
time step continuity errors : sum local = 9.05307e-09, global = 6.52835e-10, cumulative = 1.69319e-08
ExecutionTime = 0.04 s  ClockTime = 0 s

Time = 0.16

Courant Number mean: 0.165104 max: 0.243063
DILUPBiCG:  Solving for Ux, Initial residual = 0.00896542, Final residual = 2.55909e-06, No Iterations 3
DILUPBiCG:  Solving for Uy, Initial residual = 0.0587606, Final residual = 5.57018e-06, No Iterations 3
DICPCG:  Solving for p, Initial residual = 5.1624e-05, Final residual = 9.87506e-07, No Iterations 14
time step continuity errors : sum local = 9.72583e-09, global = -4.38367e-10, cumulative = 1.64935e-08
DICPCG:  Solving for p, Initial residual = 5.71721e-06, Final residual = 6.13583e-07, No Iterations 14
time step continuity errors : sum local = 6.0428e-09, global = -2.98977e-10, cumulative = 1.61945e-08
ExecutionTime = 0.04 s  ClockTime = 0 s

Time = 0.165

Courant Number mean: 0.167311 max: 0.246514
DILUPBiCG:  Solving for Ux, Initial residual = 0.00842466, Final residual = 2.78162e-06, No Iterations 3
DILUPBiCG:  Solving for Uy, Initial residual = 0.0553849, Final residual = 5.84116e-06, No Iterations 3
DICPCG:  Solving for p, Initial residual = 4.58481e-05, Final residual = 7.53895e-07, No Iterations 8
time step continuity errors : sum local = 7.42443e-09, global = -2.01611e-09, cumulative = 1.41784e-08
DICPCG:  Solving for p, Initial residual = 5.958e-06, Final residual = 8.22477e-07, No Iterations 5
time step continuity errors : sum local = 8.09948e-09, global = -3.55955e-10, cumulative = 1.38225e-08
ExecutionTime = 0.04 s  ClockTime = 0 s

Time = 0.17

Courant Number mean: 0.169415 max: 0.249804
DILUPBiCG:  Solving for Ux, Initial residual = 0.00792325, Final residual = 3.02409e-06, No Iterations 3
DILUPBiCG:  Solving for Uy, Initial residual = 0.0558593, Final residual = 6.22046e-06, No Iterations 3
DICPCG:  Solving for p, Initial residual = 4.20442e-05, Final residual = 6.66916e-07, No Iterations 13
time step continuity errors : sum local = 6.5674e-09, global = 3.27229e-10, cumulative = 1.41497e-08
DICPCG:  Solving for p, Initial residual = 7.2773e-06, Final residual = 7.26047e-07, No Iterations 5
time step continuity errors : sum local = 7.14941e-09, global = -2.24159e-09, cumulative = 1.19081e-08
ExecutionTime = 0.04 s  ClockTime = 0 s

Time = 0.175

Courant Number mean: 0.17142 max: 0.252939
DILUPBiCG:  Solving for Ux, Initial residual = 0.00745756, Final residual = 3.28945e-06, No Iterations 3
DILUPBiCG:  Solving for Uy, Initial residual = 0.0554636, Final residual = 6.03075e-06, No Iterations 3
DICPCG:  Solving for p, Initial residual = 3.70548e-05, Final residual = 8.00418e-07, No Iterations 14
time step continuity errors : sum local = 7.88157e-09, global = -1.44481e-09, cumulative = 1.04633e-08
DICPCG:  Solving for p, Initial residual = 7.06959e-06, Final residual = 8.33508e-07, No Iterations 12
time step continuity errors : sum local = 8.20712e-09, global = 1.02997e-09, cumulative = 1.14933e-08
ExecutionTime = 0.04 s  ClockTime = 0 s

Time = 0.18

Courant Number mean: 0.173331 max: 0.255928
DILUPBiCG:  Solving for Ux, Initial residual = 0.00702439, Final residual = 3.58459e-06, No Iterations 3
DILUPBiCG:  Solving for Uy, Initial residual = 0.0567993, Final residual = 7.9331e-06, No Iterations 3
DICPCG:  Solving for p, Initial residual = 3.32015e-05, Final residual = 9.63798e-07, No Iterations 9
time step continuity errors : sum local = 9.48985e-09, global = -4.28723e-09, cumulative = 7.20602e-09
DICPCG:  Solving for p, Initial residual = 7.5282e-06, Final residual = 8.40403e-07, No Iterations 7
time step continuity errors : sum local = 8.2746e-09, global = 2.66433e-09, cumulative = 9.87034e-09
ExecutionTime = 0.04 s  ClockTime = 0 s

Time = 0.185

Courant Number mean: 0.175153 max: 0.258775
DILUPBiCG:  Solving for Ux, Initial residual = 0.0066209, Final residual = 3.91374e-06, No Iterations 3
DILUPBiCG:  Solving for Uy, Initial residual = 0.0567435, Final residual = 9.34056e-06, No Iterations 3
DICPCG:  Solving for p, Initial residual = 2.96114e-05, Final residual = 9.8143e-07, No Iterations 5
time step continuity errors : sum local = 9.66301e-09, global = 2.53198e-09, cumulative = 1.24023e-08
DICPCG:  Solving for p, Initial residual = 6.494e-06, Final residual = 9.35399e-07, No Iterations 10
time step continuity errors : sum local = 9.20954e-09, global = 4.56472e-10, cumulative = 1.28588e-08
ExecutionTime = 0.04 s  ClockTime = 0 s

Time = 0.19

Courant Number mean: 0.176888 max: 0.26149
DILUPBiCG:  Solving for Ux, Initial residual = 0.00624457, Final residual = 4.28304e-06, No Iterations 3
DILUPBiCG:  Solving for Uy, Initial residual = 0.0559194, Final residual = 8.0582e-06, No Iterations 3
DICPCG:  Solving for p, Initial residual = 2.80003e-05, Final residual = 9.83944e-07, No Iterations 15
time step continuity errors : sum local = 9.68737e-09, global = -2.06571e-10, cumulative = 1.26522e-08
DICPCG:  Solving for p, Initial residual = 8.36793e-06, Final residual = 7.35371e-07, No Iterations 14
time step continuity errors : sum local = 7.23987e-09, global = 6.46924e-10, cumulative = 1.32992e-08
ExecutionTime = 0.04 s  ClockTime = 0 s

Time = 0.195

Courant Number mean: 0.178542 max: 0.264077
DILUPBiCG:  Solving for Ux, Initial residual = 0.00589314, Final residual = 4.70883e-06, No Iterations 3
DILUPBiCG:  Solving for Uy, Initial residual = 0.0588274, Final residual = 9.9611e-06, No Iterations 3
DICPCG:  Solving for p, Initial residual = 2.50417e-05, Final residual = 9.45442e-07, No Iterations 15
time step continuity errors : sum local = 9.30797e-09, global = -2.69136e-09, cumulative = 1.06078e-08
DICPCG:  Solving for p, Initial residual = 8.65656e-06, Final residual = 9.0283e-07, No Iterations 15
time step continuity errors : sum local = 8.88826e-09, global = 9.29409e-10, cumulative = 1.15372e-08
ExecutionTime = 0.04 s  ClockTime = 0 s

Time = 0.2

Courant Number mean: 0.180119 max: 0.266542
DILUPBiCG:  Solving for Ux, Initial residual = 0.00556459, Final residual = 5.20002e-06, No Iterations 3
DILUPBiCG:  Solving for Uy, Initial residual = 0.0623091, Final residual = 8.43295e-06, No Iterations 3
DICPCG:  Solving for p, Initial residual = 2.42339e-05, Final residual = 9.76765e-07, No Iterations 9
time step continuity errors : sum local = 9.61605e-09, global = -4.41519e-09, cumulative = 7.122e-09
DICPCG:  Solving for p, Initial residual = 9.0181e-06, Final residual = 6.61163e-07, No Iterations 8
time step continuity errors : sum local = 6.50889e-09, global = -1.51047e-10, cumulative = 6.97096e-09
ExecutionTime = 0.05 s  ClockTime = 0 s

Time = 0.205

Courant Number mean: 0.181621 max: 0.268892
DILUPBiCG:  Solving for Ux, Initial residual = 0.0052571, Final residual = 5.78381e-06, No Iterations 3
DILUPBiCG:  Solving for Uy, Initial residual = 0.0613196, Final residual = 7.78618e-07, No Iterations 4
DICPCG:  Solving for p, Initial residual = 2.27756e-05, Final residual = 9.60549e-07, No Iterations 11
time step continuity errors : sum local = 9.45614e-09, global = 3.77224e-09, cumulative = 1.07432e-08
DICPCG:  Solving for p, Initial residual = 1.03452e-05, Final residual = 8.04041e-07, No Iterations 10
time step continuity errors : sum local = 7.91526e-09, global = 2.4615e-09, cumulative = 1.32047e-08
ExecutionTime = 0.05 s  ClockTime = 0 s

Time = 0.21

Courant Number mean: 0.183053 max: 0.271131
DILUPBiCG:  Solving for Ux, Initial residual = 0.00496903, Final residual = 6.47898e-06, No Iterations 3
DILUPBiCG:  Solving for Uy, Initial residual = 0.0691442, Final residual = 1.18522e-06, No Iterations 4
DICPCG:  Solving for p, Initial residual = 2.20005e-05, Final residual = 8.29429e-07, No Iterations 17
time step continuity errors : sum local = 8.16514e-09, global = -1.25148e-09, cumulative = 1.19532e-08
DICPCG:  Solving for p, Initial residual = 1.12443e-05, Final residual = 6.8986e-07, No Iterations 16
time step continuity errors : sum local = 6.79108e-09, global = 1.17102e-09, cumulative = 1.31242e-08
ExecutionTime = 0.05 s  ClockTime = 0 s

Time = 0.215

Courant Number mean: 0.184418 max: 0.273265
DILUPBiCG:  Solving for Ux, Initial residual = 0.00469892, Final residual = 7.34442e-06, No Iterations 3
DILUPBiCG:  Solving for Uy, Initial residual = 0.080301, Final residual = 1.32767e-06, No Iterations 4
DICPCG:  Solving for p, Initial residual = 2.33931e-05, Final residual = 6.07076e-07, No Iterations 17
time step continuity errors : sum local = 5.97611e-09, global = -7.59625e-10, cumulative = 1.23646e-08
DICPCG:  Solving for p, Initial residual = 1.40384e-05, Final residual = 5.06847e-07, No Iterations 16
time step continuity errors : sum local = 4.98938e-09, global = 7.37134e-10, cumulative = 1.31017e-08
ExecutionTime = 0.05 s  ClockTime = 0 s

Time = 0.22

Courant Number mean: 0.185718 max: 0.275298
DILUPBiCG:  Solving for Ux, Initial residual = 0.00444542, Final residual = 8.44351e-06, No Iterations 3
DILUPBiCG:  Solving for Uy, Initial residual = 0.0716838, Final residual = 1.17096e-06, No Iterations 4
DICPCG:  Solving for p, Initial residual = 2.2078e-05, Final residual = 5.62629e-07, No Iterations 17
time step continuity errors : sum local = 5.53847e-09, global = -7.45316e-10, cumulative = 1.23564e-08
DICPCG:  Solving for p, Initial residual = 1.36338e-05, Final residual = 5.30234e-07, No Iterations 16
time step continuity errors : sum local = 5.21951e-09, global = 3.57841e-10, cumulative = 1.27143e-08
ExecutionTime = 0.05 s  ClockTime = 0 s

Time = 0.225

Courant Number mean: 0.186957 max: 0.277237
DILUPBiCG:  Solving for Ux, Initial residual = 0.00420734, Final residual = 9.90074e-06, No Iterations 3
DILUPBiCG:  Solving for Uy, Initial residual = 0.0813302, Final residual = 1.33765e-06, No Iterations 4
DICPCG:  Solving for p, Initial residual = 2.36644e-05, Final residual = 4.04656e-07, No Iterations 17
time step continuity errors : sum local = 3.98334e-09, global = -2.18852e-10, cumulative = 1.24954e-08
DICPCG:  Solving for p, Initial residual = 1.59931e-05, Final residual = 7.78264e-07, No Iterations 16
time step continuity errors : sum local = 7.66094e-09, global = 9.87916e-10, cumulative = 1.34833e-08
ExecutionTime = 0.05 s  ClockTime = 0 s

Time = 0.23

Courant Number mean: 0.188138 max: 0.279085
DILUPBiCG:  Solving for Ux, Initial residual = 0.00398356, Final residual = 5.24669e-08, No Iterations 4
DILUPBiCG:  Solving for Uy, Initial residual = 0.0877514, Final residual = 1.57987e-06, No Iterations 4
DICPCG:  Solving for p, Initial residual = 2.00977e-05, Final residual = 8.38859e-07, No Iterations 10
time step continuity errors : sum local = 8.25747e-09, global = 1.51067e-09, cumulative = 1.4994e-08
DICPCG:  Solving for p, Initial residual = 6.28838e-06, Final residual = 8.97501e-07, No Iterations 7
time step continuity errors : sum local = 8.83468e-09, global = 1.18966e-09, cumulative = 1.61837e-08
ExecutionTime = 0.05 s  ClockTime = 0 s

Time = 0.235

Courant Number mean: 0.189265 max: 0.280847
DILUPBiCG:  Solving for Ux, Initial residual = 0.00377264, Final residual = 5.0837e-08, No Iterations 4
DILUPBiCG:  Solving for Uy, Initial residual = 0.0771206, Final residual = 1.44011e-06, No Iterations 4
DICPCG:  Solving for p, Initial residual = 1.1375e-05, Final residual = 5.95797e-07, No Iterations 6
time step continuity errors : sum local = 5.86479e-09, global = -1.64053e-09, cumulative = 1.45431e-08
DICPCG:  Solving for p, Initial residual = 4.31395e-06, Final residual = 5.28391e-07, No Iterations 5
time step continuity errors : sum local = 5.20122e-09, global = -2.10653e-09, cumulative = 1.24366e-08
ExecutionTime = 0.05 s  ClockTime = 0 s

Time = 0.24

Courant Number mean: 0.190339 max: 0.282526
DILUPBiCG:  Solving for Ux, Initial residual = 0.00357411, Final residual = 4.91749e-08, No Iterations 4
DILUPBiCG:  Solving for Uy, Initial residual = 0.0707962, Final residual = 1.42106e-06, No Iterations 4
DICPCG:  Solving for p, Initial residual = 8.53589e-06, Final residual = 9.03454e-07, No Iterations 5
time step continuity errors : sum local = 8.89319e-09, global = 1.18216e-09, cumulative = 1.36188e-08
DICPCG:  Solving for p, Initial residual = 1.8486e-06, Final residual = 8.14614e-07, No Iterations 3
time step continuity errors : sum local = 8.01863e-09, global = -2.23364e-10, cumulative = 1.33954e-08
ExecutionTime = 0.05 s  ClockTime = 0 s

Time = 0.245

Courant Number mean: 0.191363 max: 0.284126
DILUPBiCG:  Solving for Ux, Initial residual = 0.0033871, Final residual = 4.75332e-08, No Iterations 4
DILUPBiCG:  Solving for Uy, Initial residual = 0.0624308, Final residual = 1.06565e-06, No Iterations 4
DICPCG:  Solving for p, Initial residual = 8.32085e-06, Final residual = 8.89951e-07, No Iterations 6
time step continuity errors : sum local = 8.76021e-09, global = 8.37229e-10, cumulative = 1.42326e-08
DICPCG:  Solving for p, Initial residual = 2.96018e-06, Final residual = 9.72239e-07, No Iterations 3
time step continuity errors : sum local = 9.57015e-09, global = -3.23224e-10, cumulative = 1.39094e-08
ExecutionTime = 0.05 s  ClockTime = 0 s

Time = 0.25

Courant Number mean: 0.192338 max: 0.285652
DILUPBiCG:  Solving for Ux, Initial residual = 0.00321083, Final residual = 4.59026e-08, No Iterations 4
DILUPBiCG:  Solving for Uy, Initial residual = 0.073507, Final residual = 1.28632e-06, No Iterations 4
DICPCG:  Solving for p, Initial residual = 7.69796e-06, Final residual = 9.50038e-07, No Iterations 6
time step continuity errors : sum local = 9.35162e-09, global = 1.71087e-09, cumulative = 1.56203e-08
DICPCG:  Solving for p, Initial residual = 3.41939e-06, Final residual = 8.43014e-07, No Iterations 6
time step continuity errors : sum local = 8.29809e-09, global = 7.2899e-10, cumulative = 1.63493e-08
ExecutionTime = 0.05 s  ClockTime = 0 s

Time = 0.255

Courant Number mean: 0.193268 max: 0.287106
DILUPBiCG:  Solving for Ux, Initial residual = 0.00304458, Final residual = 4.42998e-08, No Iterations 4
DILUPBiCG:  Solving for Uy, Initial residual = 0.0711326, Final residual = 1.64819e-06, No Iterations 4
DICPCG:  Solving for p, Initial residual = 7.38887e-06, Final residual = 8.02693e-07, No Iterations 5
time step continuity errors : sum local = 7.90121e-09, global = -1.85432e-09, cumulative = 1.4495e-08
DICPCG:  Solving for p, Initial residual = 3.36725e-06, Final residual = 6.90619e-07, No Iterations 3
time step continuity errors : sum local = 6.79798e-09, global = -1.18626e-09, cumulative = 1.33087e-08
ExecutionTime = 0.06 s  ClockTime = 0 s

Time = 0.26

Courant Number mean: 0.194154 max: 0.288493
DILUPBiCG:  Solving for Ux, Initial residual = 0.0028877, Final residual = 4.27203e-08, No Iterations 4
DILUPBiCG:  Solving for Uy, Initial residual = 0.0898331, Final residual = 1.65178e-06, No Iterations 4
DICPCG:  Solving for p, Initial residual = 6.24601e-06, Final residual = 6.33159e-07, No Iterations 7
time step continuity errors : sum local = 6.2324e-09, global = -1.20571e-09, cumulative = 1.2103e-08
DICPCG:  Solving for p, Initial residual = 3.23908e-06, Final residual = 8.26094e-07, No Iterations 3
time step continuity errors : sum local = 8.13148e-09, global = -2.81514e-10, cumulative = 1.18215e-08
ExecutionTime = 0.06 s  ClockTime = 0 s

Time = 0.265

Courant Number mean: 0.194999 max: 0.289814
DILUPBiCG:  Solving for Ux, Initial residual = 0.00273959, Final residual = 4.1174e-08, No Iterations 4
DILUPBiCG:  Solving for Uy, Initial residual = 0.0960033, Final residual = 1.96585e-06, No Iterations 4
DICPCG:  Solving for p, Initial residual = 6.17369e-06, Final residual = 6.81758e-07, No Iterations 7
time step continuity errors : sum local = 6.71076e-09, global = 1.06925e-09, cumulative = 1.28907e-08
DICPCG:  Solving for p, Initial residual = 3.1674e-06, Final residual = 6.31596e-07, No Iterations 6
time step continuity errors : sum local = 6.21697e-09, global = 1.41666e-09, cumulative = 1.43074e-08
ExecutionTime = 0.06 s  ClockTime = 0 s

Time = 0.27

Courant Number mean: 0.195804 max: 0.291072
DILUPBiCG:  Solving for Ux, Initial residual = 0.00259968, Final residual = 3.96553e-08, No Iterations 4
DILUPBiCG:  Solving for Uy, Initial residual = 0.118658, Final residual = 2.18422e-06, No Iterations 4
DICPCG:  Solving for p, Initial residual = 5.53055e-06, Final residual = 7.96297e-07, No Iterations 5
time step continuity errors : sum local = 7.83818e-09, global = -2.10625e-10, cumulative = 1.40968e-08
DICPCG:  Solving for p, Initial residual = 2.52789e-06, Final residual = 8.20447e-07, No Iterations 3
time step continuity errors : sum local = 8.07586e-09, global = -1.00097e-09, cumulative = 1.30958e-08
ExecutionTime = 0.06 s  ClockTime = 0 s

Time = 0.275

Courant Number mean: 0.196571 max: 0.292272
DILUPBiCG:  Solving for Ux, Initial residual = 0.00246747, Final residual = 3.81729e-08, No Iterations 4
DILUPBiCG:  Solving for Uy, Initial residual = 0.119196, Final residual = 2.35459e-06, No Iterations 4
DICPCG:  Solving for p, Initial residual = 5.99139e-06, Final residual = 9.77371e-07, No Iterations 7
time step continuity errors : sum local = 9.62053e-09, global = 5.51789e-10, cumulative = 1.36476e-08
DICPCG:  Solving for p, Initial residual = 3.1314e-06, Final residual = 4.81087e-07, No Iterations 7
time step continuity errors : sum local = 4.73545e-09, global = -3.1908e-10, cumulative = 1.33285e-08
ExecutionTime = 0.06 s  ClockTime = 0 s

Time = 0.28

Courant Number mean: 0.197302 max: 0.293416
DILUPBiCG:  Solving for Ux, Initial residual = 0.00234247, Final residual = 9.67923e-06, No Iterations 2
DILUPBiCG:  Solving for Uy, Initial residual = 0.153521, Final residual = 2.30886e-06, No Iterations 4
DICPCG:  Solving for p, Initial residual = 2.71528e-05, Final residual = 8.2298e-07, No Iterations 17
time step continuity errors : sum local = 8.10079e-09, global = 7.93028e-10, cumulative = 1.41215e-08
DICPCG:  Solving for p, Initial residual = 1.8832e-05, Final residual = 4.4977e-07, No Iterations 17
time step continuity errors : sum local = 4.42716e-09, global = -1.18405e-10, cumulative = 1.40031e-08
ExecutionTime = 0.06 s  ClockTime = 0 s

Time = 0.285

Courant Number mean: 0.197997 max: 0.294505
DILUPBiCG:  Solving for Ux, Initial residual = 0.00222461, Final residual = 9.25275e-06, No Iterations 2
DILUPBiCG:  Solving for Uy, Initial residual = 0.16985, Final residual = 3.17342e-06, No Iterations 4
DICPCG:  Solving for p, Initial residual = 1.72529e-05, Final residual = 9.88367e-07, No Iterations 16
time step continuity errors : sum local = 9.72869e-09, global = -3.97515e-10, cumulative = 1.36056e-08
DICPCG:  Solving for p, Initial residual = 1.42936e-05, Final residual = 7.48636e-07, No Iterations 16
time step continuity errors : sum local = 7.36894e-09, global = 1.32941e-09, cumulative = 1.4935e-08
ExecutionTime = 0.06 s  ClockTime = 0 s

Time = 0.29

Courant Number mean: 0.19866 max: 0.295543
DILUPBiCG:  Solving for Ux, Initial residual = 0.00211304, Final residual = 8.85473e-06, No Iterations 2
DILUPBiCG:  Solving for Uy, Initial residual = 0.148365, Final residual = 3.96347e-06, No Iterations 4
DICPCG:  Solving for p, Initial residual = 1.67204e-05, Final residual = 5.174e-07, No Iterations 16
time step continuity errors : sum local = 5.09286e-09, global = -1.10335e-09, cumulative = 1.38317e-08
DICPCG:  Solving for p, Initial residual = 1.48773e-05, Final residual = 7.26809e-07, No Iterations 16
time step continuity errors : sum local = 7.15409e-09, global = 1.16842e-09, cumulative = 1.50001e-08
ExecutionTime = 0.06 s  ClockTime = 0 s

Time = 0.295

Courant Number mean: 0.199292 max: 0.296532
DILUPBiCG:  Solving for Ux, Initial residual = 0.00200741, Final residual = 8.47029e-06, No Iterations 2
DILUPBiCG:  Solving for Uy, Initial residual = 0.148761, Final residual = 3.92372e-06, No Iterations 4
DICPCG:  Solving for p, Initial residual = 1.58434e-05, Final residual = 6.49447e-07, No Iterations 16
time step continuity errors : sum local = 6.39261e-09, global = -1.10749e-09, cumulative = 1.38926e-08
DICPCG:  Solving for p, Initial residual = 1.45234e-05, Final residual = 5.68413e-07, No Iterations 16
time step continuity errors : sum local = 5.59496e-09, global = 1.39264e-09, cumulative = 1.52852e-08
ExecutionTime = 0.06 s  ClockTime = 0 s

Time = 0.3

Courant Number mean: 0.199894 max: 0.297475
DILUPBiCG:  Solving for Ux, Initial residual = 0.00190737, Final residual = 8.10164e-06, No Iterations 2
DILUPBiCG:  Solving for Uy, Initial residual = 0.134799, Final residual = 4.01469e-06, No Iterations 4
DICPCG:  Solving for p, Initial residual = 1.40996e-05, Final residual = 6.52195e-07, No Iterations 16
time step continuity errors : sum local = 6.41966e-09, global = -1.21539e-09, cumulative = 1.40698e-08
DICPCG:  Solving for p, Initial residual = 1.32759e-05, Final residual = 6.42183e-07, No Iterations 16
time step continuity errors : sum local = 6.32109e-09, global = 8.23126e-10, cumulative = 1.4893e-08
ExecutionTime = 0.07 s  ClockTime = 0 s

Time = 0.305

Courant Number mean: 0.200468 max: 0.298373
DILUPBiCG:  Solving for Ux, Initial residual = 0.0018126, Final residual = 7.74837e-06, No Iterations 2
DILUPBiCG:  Solving for Uy, Initial residual = 0.143407, Final residual = 4.00825e-06, No Iterations 4
DICPCG:  Solving for p, Initial residual = 1.44868e-05, Final residual = 7.28822e-07, No Iterations 16
time step continuity errors : sum local = 7.17391e-09, global = -1.56073e-09, cumulative = 1.33322e-08
DICPCG:  Solving for p, Initial residual = 1.36967e-05, Final residual = 4.94701e-07, No Iterations 16
time step continuity errors : sum local = 4.86941e-09, global = 1.46982e-09, cumulative = 1.48021e-08
ExecutionTime = 0.07 s  ClockTime = 0 s

Time = 0.31

Courant Number mean: 0.201015 max: 0.299229
DILUPBiCG:  Solving for Ux, Initial residual = 0.00172279, Final residual = 7.40862e-06, No Iterations 2
DILUPBiCG:  Solving for Uy, Initial residual = 0.129519, Final residual = 3.81332e-06, No Iterations 4
DICPCG:  Solving for p, Initial residual = 1.31349e-05, Final residual = 4.39044e-07, No Iterations 16
time step continuity errors : sum local = 4.32158e-09, global = -7.1313e-10, cumulative = 1.40889e-08
DICPCG:  Solving for p, Initial residual = 1.22885e-05, Final residual = 6.00186e-07, No Iterations 16
time step continuity errors : sum local = 5.90772e-09, global = 7.50212e-10, cumulative = 1.48391e-08
ExecutionTime = 0.07 s  ClockTime = 0 s

Time = 0.315

Courant Number mean: 0.201536 max: 0.300045
DILUPBiCG:  Solving for Ux, Initial residual = 0.00163767, Final residual = 7.08347e-06, No Iterations 2
DILUPBiCG:  Solving for Uy, Initial residual = 0.133241, Final residual = 3.86895e-06, No Iterations 4
DICPCG:  Solving for p, Initial residual = 1.30092e-05, Final residual = 7.41951e-07, No Iterations 16
time step continuity errors : sum local = 7.30315e-09, global = -1.45089e-09, cumulative = 1.33883e-08
DICPCG:  Solving for p, Initial residual = 1.25491e-05, Final residual = 5.80022e-07, No Iterations 16
time step continuity errors : sum local = 5.70925e-09, global = 1.56779e-09, cumulative = 1.4956e-08
ExecutionTime = 0.07 s  ClockTime = 0 s

Time = 0.32

Courant Number mean: 0.202033 max: 0.300823
DILUPBiCG:  Solving for Ux, Initial residual = 0.00155696, Final residual = 6.77097e-06, No Iterations 2
DILUPBiCG:  Solving for Uy, Initial residual = 0.131525, Final residual = 3.83264e-06, No Iterations 4
DICPCG:  Solving for p, Initial residual = 1.24187e-05, Final residual = 4.36667e-07, No Iterations 16
time step continuity errors : sum local = 4.29819e-09, global = -7.18854e-10, cumulative = 1.42372e-08
DICPCG:  Solving for p, Initial residual = 1.16813e-05, Final residual = 9.3145e-07, No Iterations 15
time step continuity errors : sum local = 9.16842e-09, global = 1.59146e-09, cumulative = 1.58287e-08
ExecutionTime = 0.07 s  ClockTime = 0 s

Time = 0.325

Courant Number mean: 0.202506 max: 0.301564
DILUPBiCG:  Solving for Ux, Initial residual = 0.00148042, Final residual = 6.47161e-06, No Iterations 2
DILUPBiCG:  Solving for Uy, Initial residual = 0.133146, Final residual = 4.06519e-06, No Iterations 4
DICPCG:  Solving for p, Initial residual = 1.19865e-05, Final residual = 7.78091e-07, No Iterations 15
time step continuity errors : sum local = 7.6589e-09, global = 2.75294e-10, cumulative = 1.61039e-08
DICPCG:  Solving for p, Initial residual = 1.13115e-05, Final residual = 5.66837e-07, No Iterations 16
time step continuity errors : sum local = 5.57948e-09, global = 1.05134e-09, cumulative = 1.71553e-08
ExecutionTime = 0.07 s  ClockTime = 0 s

Time = 0.33

Courant Number mean: 0.202958 max: 0.30227
DILUPBiCG:  Solving for Ux, Initial residual = 0.00140781, Final residual = 6.18513e-06, No Iterations 2
DILUPBiCG:  Solving for Uy, Initial residual = 0.126309, Final residual = 3.77048e-06, No Iterations 4
DICPCG:  Solving for p, Initial residual = 1.10985e-05, Final residual = 9.46167e-07, No Iterations 16
time step continuity errors : sum local = 9.31332e-09, global = -1.32877e-09, cumulative = 1.58265e-08
DICPCG:  Solving for p, Initial residual = 1.12387e-05, Final residual = 8.69936e-07, No Iterations 16
time step continuity errors : sum local = 8.56295e-09, global = 1.16002e-09, cumulative = 1.69865e-08
ExecutionTime = 0.07 s  ClockTime = 0 s

Time = 0.335

Courant Number mean: 0.203388 max: 0.302943
DILUPBiCG:  Solving for Ux, Initial residual = 0.00133892, Final residual = 5.90977e-06, No Iterations 2
DILUPBiCG:  Solving for Uy, Initial residual = 0.169888, Final residual = 4.68138e-06, No Iterations 4
DICPCG:  Solving for p, Initial residual = 1.27015e-05, Final residual = 9.28761e-07, No Iterations 15
time step continuity errors : sum local = 9.14201e-09, global = -1.89217e-09, cumulative = 1.50944e-08
DICPCG:  Solving for p, Initial residual = 1.19297e-05, Final residual = 9.83938e-07, No Iterations 12
time step continuity errors : sum local = 9.68512e-09, global = 4.29386e-09, cumulative = 1.93882e-08
ExecutionTime = 0.07 s  ClockTime = 0 s

Time = 0.34

Courant Number mean: 0.203798 max: 0.303584
DILUPBiCG:  Solving for Ux, Initial residual = 0.00127353, Final residual = 5.64635e-06, No Iterations 2
DILUPBiCG:  Solving for Uy, Initial residual = 0.115543, Final residual = 3.57273e-06, No Iterations 4
DICPCG:  Solving for p, Initial residual = 1.11064e-05, Final residual = 9.53036e-07, No Iterations 8
time step continuity errors : sum local = 9.38096e-09, global = 1.83117e-09, cumulative = 2.12194e-08
DICPCG:  Solving for p, Initial residual = 1.05904e-05, Final residual = 7.44689e-07, No Iterations 8
time step continuity errors : sum local = 7.33015e-09, global = 3.92702e-09, cumulative = 2.51464e-08
ExecutionTime = 0.07 s  ClockTime = 0 s

Time = 0.345

Courant Number mean: 0.204189 max: 0.304196
DILUPBiCG:  Solving for Ux, Initial residual = 0.00121147, Final residual = 5.39388e-06, No Iterations 2
DILUPBiCG:  Solving for Uy, Initial residual = 0.0981389, Final residual = 3.04736e-06, No Iterations 4
DICPCG:  Solving for p, Initial residual = 9.09809e-06, Final residual = 5.94052e-07, No Iterations 12
time step continuity errors : sum local = 5.8474e-09, global = -2.03457e-09, cumulative = 2.31118e-08
DICPCG:  Solving for p, Initial residual = 8.71294e-06, Final residual = 8.73148e-07, No Iterations 8
time step continuity errors : sum local = 8.59462e-09, global = 4.87509e-09, cumulative = 2.79869e-08
ExecutionTime = 0.07 s  ClockTime = 0 s

Time = 0.35

Courant Number mean: 0.204562 max: 0.304779
DILUPBiCG:  Solving for Ux, Initial residual = 0.00115254, Final residual = 5.15224e-06, No Iterations 2
DILUPBiCG:  Solving for Uy, Initial residual = 0.0957057, Final residual = 3.02353e-06, No Iterations 4
DICPCG:  Solving for p, Initial residual = 9.76892e-06, Final residual = 4.97321e-07, No Iterations 15
time step continuity errors : sum local = 4.89527e-09, global = -4.22455e-10, cumulative = 2.75645e-08
DICPCG:  Solving for p, Initial residual = 9.18654e-06, Final residual = 6.32827e-07, No Iterations 15
time step continuity errors : sum local = 6.22909e-09, global = 8.10069e-10, cumulative = 2.83746e-08
ExecutionTime = 0.08 s  ClockTime = 0 s

Time = 0.355

Courant Number mean: 0.204917 max: 0.305334
DILUPBiCG:  Solving for Ux, Initial residual = 0.00109659, Final residual = 4.92125e-06, No Iterations 2
DILUPBiCG:  Solving for Uy, Initial residual = 0.11345, Final residual = 3.42596e-06, No Iterations 4
DICPCG:  Solving for p, Initial residual = 8.67625e-06, Final residual = 4.95322e-07, No Iterations 16
time step continuity errors : sum local = 4.8756e-09, global = -5.73216e-10, cumulative = 2.78013e-08
DICPCG:  Solving for p, Initial residual = 8.52441e-06, Final residual = 6.30087e-07, No Iterations 15
time step continuity errors : sum local = 6.20212e-09, global = 9.07512e-10, cumulative = 2.87089e-08
ExecutionTime = 0.08 s  ClockTime = 0 s

Time = 0.36

Courant Number mean: 0.205256 max: 0.305863
DILUPBiCG:  Solving for Ux, Initial residual = 0.00104345, Final residual = 4.69986e-06, No Iterations 2
DILUPBiCG:  Solving for Uy, Initial residual = 0.137544, Final residual = 3.98885e-06, No Iterations 4
DICPCG:  Solving for p, Initial residual = 9.09264e-06, Final residual = 8.18937e-07, No Iterations 8
time step continuity errors : sum local = 8.06105e-09, global = -2.9246e-09, cumulative = 2.57842e-08
DICPCG:  Solving for p, Initial residual = 8.74344e-06, Final residual = 9.10119e-07, No Iterations 7
time step continuity errors : sum local = 8.95859e-09, global = -9.45853e-10, cumulative = 2.48384e-08
ExecutionTime = 0.08 s  ClockTime = 0 s

Time = 0.365

Courant Number mean: 0.205578 max: 0.306368
DILUPBiCG:  Solving for Ux, Initial residual = 0.000992964, Final residual = 4.4879e-06, No Iterations 2
DILUPBiCG:  Solving for Uy, Initial residual = 0.0918431, Final residual = 2.6873e-06, No Iterations 4
DICPCG:  Solving for p, Initial residual = 8.53536e-06, Final residual = 8.63527e-07, No Iterations 10
time step continuity errors : sum local = 8.49998e-09, global = 2.37514e-09, cumulative = 2.72135e-08
DICPCG:  Solving for p, Initial residual = 7.95314e-06, Final residual = 9.11717e-07, No Iterations 9
time step continuity errors : sum local = 8.97433e-09, global = 8.64364e-10, cumulative = 2.80779e-08
ExecutionTime = 0.08 s  ClockTime = 0 s

Time = 0.37

Courant Number mean: 0.205886 max: 0.306849
DILUPBiCG:  Solving for Ux, Initial residual = 0.000944994, Final residual = 4.28582e-06, No Iterations 2
DILUPBiCG:  Solving for Uy, Initial residual = 0.128856, Final residual = 3.73623e-06, No Iterations 4
DICPCG:  Solving for p, Initial residual = 9.52378e-06, Final residual = 8.3213e-07, No Iterations 14
time step continuity errors : sum local = 8.19095e-09, global = -2.20702e-09, cumulative = 2.58709e-08
DICPCG:  Solving for p, Initial residual = 8.10573e-06, Final residual = 7.94688e-07, No Iterations 8
time step continuity errors : sum local = 7.82239e-09, global = 3.65412e-09, cumulative = 2.9525e-08
ExecutionTime = 0.08 s  ClockTime = 0 s

Time = 0.375

Courant Number mean: 0.206179 max: 0.307307
DILUPBiCG:  Solving for Ux, Initial residual = 0.000899409, Final residual = 4.09147e-06, No Iterations 2
DILUPBiCG:  Solving for Uy, Initial residual = 0.0894705, Final residual = 3.18356e-06, No Iterations 4
DICPCG:  Solving for p, Initial residual = 8.0281e-06, Final residual = 9.42593e-07, No Iterations 14
time step continuity errors : sum local = 9.2783e-09, global = 5.27893e-10, cumulative = 3.00529e-08
DICPCG:  Solving for p, Initial residual = 7.2091e-06, Final residual = 9.78011e-07, No Iterations 8
time step continuity errors : sum local = 9.62693e-09, global = -6.10646e-09, cumulative = 2.39464e-08
ExecutionTime = 0.08 s  ClockTime = 0 s

Time = 0.38

Courant Number mean: 0.206459 max: 0.307744
DILUPBiCG:  Solving for Ux, Initial residual = 0.0008561, Final residual = 3.90726e-06, No Iterations 2
DILUPBiCG:  Solving for Uy, Initial residual = 0.0841011, Final residual = 2.51748e-06, No Iterations 4
DICPCG:  Solving for p, Initial residual = 8.81762e-06, Final residual = 7.207e-07, No Iterations 14
time step continuity errors : sum local = 7.09414e-09, global = -9.82987e-10, cumulative = 2.29634e-08
DICPCG:  Solving for p, Initial residual = 8.12842e-06, Final residual = 8.34602e-07, No Iterations 13
time step continuity errors : sum local = 8.21531e-09, global = 8.16083e-11, cumulative = 2.3045e-08
ExecutionTime = 0.08 s  ClockTime = 0 s

Time = 0.385

Courant Number mean: 0.206725 max: 0.308161
DILUPBiCG:  Solving for Ux, Initial residual = 0.000814916, Final residual = 3.72866e-06, No Iterations 2
DILUPBiCG:  Solving for Uy, Initial residual = 0.122986, Final residual = 3.59599e-06, No Iterations 4
DICPCG:  Solving for p, Initial residual = 8.08435e-06, Final residual = 6.70558e-07, No Iterations 7
time step continuity errors : sum local = 6.60058e-09, global = 1.41221e-09, cumulative = 2.44572e-08
DICPCG:  Solving for p, Initial residual = 6.97982e-06, Final residual = 6.22466e-07, No Iterations 7
time step continuity errors : sum local = 6.12719e-09, global = 1.87777e-09, cumulative = 2.6335e-08
ExecutionTime = 0.08 s  ClockTime = 0 s

Time = 0.39

Courant Number mean: 0.206979 max: 0.308558
DILUPBiCG:  Solving for Ux, Initial residual = 0.000775766, Final residual = 3.55956e-06, No Iterations 2
DILUPBiCG:  Solving for Uy, Initial residual = 0.135343, Final residual = 4.65718e-06, No Iterations 4
DICPCG:  Solving for p, Initial residual = 6.5333e-06, Final residual = 7.69712e-07, No Iterations 7
time step continuity errors : sum local = 7.5766e-09, global = -1.65311e-09, cumulative = 2.46819e-08
DICPCG:  Solving for p, Initial residual = 6.19983e-06, Final residual = 6.84072e-07, No Iterations 7
time step continuity errors : sum local = 6.73361e-09, global = -6.4708e-10, cumulative = 2.40348e-08
ExecutionTime = 0.08 s  ClockTime = 0 s

Time = 0.395

Courant Number mean: 0.207221 max: 0.308936
DILUPBiCG:  Solving for Ux, Initial residual = 0.000738549, Final residual = 3.39697e-06, No Iterations 2
DILUPBiCG:  Solving for Uy, Initial residual = 0.112486, Final residual = 3.11761e-06, No Iterations 4
DICPCG:  Solving for p, Initial residual = 6.56694e-06, Final residual = 8.93514e-07, No Iterations 7
time step continuity errors : sum local = 8.79525e-09, global = 1.13346e-09, cumulative = 2.51683e-08
DICPCG:  Solving for p, Initial residual = 6.25769e-06, Final residual = 8.40633e-07, No Iterations 7
time step continuity errors : sum local = 8.27472e-09, global = 1.0539e-09, cumulative = 2.62222e-08
ExecutionTime = 0.08 s  ClockTime = 0 s

Time = 0.4

Courant Number mean: 0.207452 max: 0.309297
DILUPBiCG:  Solving for Ux, Initial residual = 0.000703155, Final residual = 3.24188e-06, No Iterations 2
DILUPBiCG:  Solving for Uy, Initial residual = 0.129935, Final residual = 3.56714e-06, No Iterations 4
DICPCG:  Solving for p, Initial residual = 6.17213e-06, Final residual = 9.95635e-07, No Iterations 4
time step continuity errors : sum local = 9.80048e-09, global = 4.56795e-10, cumulative = 2.6679e-08
DICPCG:  Solving for p, Initial residual = 5.33447e-06, Final residual = 5.84699e-07, No Iterations 5
time step continuity errors : sum local = 5.75545e-09, global = -2.33017e-10, cumulative = 2.6446e-08
ExecutionTime = 0.09 s  ClockTime = 0 s

Time = 0.405

Courant Number mean: 0.207671 max: 0.30964
DILUPBiCG:  Solving for Ux, Initial residual = 0.000669498, Final residual = 3.09519e-06, No Iterations 2
DILUPBiCG:  Solving for Uy, Initial residual = 0.123587, Final residual = 3.7897e-06, No Iterations 4
DICPCG:  Solving for p, Initial residual = 7.39029e-06, Final residual = 7.48713e-07, No Iterations 5
time step continuity errors : sum local = 7.36993e-09, global = -1.71603e-09, cumulative = 2.47299e-08
DICPCG:  Solving for p, Initial residual = 7.02202e-06, Final residual = 9.25446e-07, No Iterations 4
time step continuity errors : sum local = 9.1096e-09, global = 3.82198e-10, cumulative = 2.51121e-08
ExecutionTime = 0.09 s  ClockTime = 0 s

Time = 0.41

Courant Number mean: 0.207881 max: 0.309968
DILUPBiCG:  Solving for Ux, Initial residual = 0.000637484, Final residual = 2.95293e-06, No Iterations 2
DILUPBiCG:  Solving for Uy, Initial residual = 0.0986074, Final residual = 3.45757e-06, No Iterations 4
DICPCG:  Solving for p, Initial residual = 5.70351e-06, Final residual = 8.52372e-07, No Iterations 5
time step continuity errors : sum local = 8.3903e-09, global = -7.51914e-11, cumulative = 2.50369e-08
DICPCG:  Solving for p, Initial residual = 5.47909e-06, Final residual = 8.37313e-07, No Iterations 3
time step continuity errors : sum local = 8.24207e-09, global = -6.60472e-10, cumulative = 2.43765e-08
ExecutionTime = 0.09 s  ClockTime = 0 s

Time = 0.415

Courant Number mean: 0.208081 max: 0.31028
DILUPBiCG:  Solving for Ux, Initial residual = 0.000607033, Final residual = 2.81805e-06, No Iterations 2
DILUPBiCG:  Solving for Uy, Initial residual = 0.141958, Final residual = 4.15935e-06, No Iterations 4
DICPCG:  Solving for p, Initial residual = 7.93417e-06, Final residual = 9.79403e-07, No Iterations 5
time step continuity errors : sum local = 9.64074e-09, global = 6.88977e-10, cumulative = 2.50654e-08
DICPCG:  Solving for p, Initial residual = 7.29839e-06, Final residual = 5.65812e-07, No Iterations 6
time step continuity errors : sum local = 5.56957e-09, global = 1.27528e-09, cumulative = 2.63407e-08
ExecutionTime = 0.09 s  ClockTime = 0 s

Time = 0.42

Courant Number mean: 0.208271 max: 0.310578
DILUPBiCG:  Solving for Ux, Initial residual = 0.000578062, Final residual = 2.68926e-06, No Iterations 2
DILUPBiCG:  Solving for Uy, Initial residual = 0.142751, Final residual = 3.90469e-06, No Iterations 4
DICPCG:  Solving for p, Initial residual = 6.81917e-06, Final residual = 5.02888e-07, No Iterations 7
time step continuity errors : sum local = 4.95019e-09, global = -7.78511e-10, cumulative = 2.55622e-08
DICPCG:  Solving for p, Initial residual = 5.72353e-06, Final residual = 8.37711e-07, No Iterations 6
time step continuity errors : sum local = 8.24602e-09, global = 7.31608e-10, cumulative = 2.62938e-08
ExecutionTime = 0.09 s  ClockTime = 0 s

Time = 0.425

Courant Number mean: 0.208453 max: 0.310862
DILUPBiCG:  Solving for Ux, Initial residual = 0.000550502, Final residual = 2.56546e-06, No Iterations 2
DILUPBiCG:  Solving for Uy, Initial residual = 0.127282, Final residual = 3.74615e-06, No Iterations 4
DICPCG:  Solving for p, Initial residual = 6.39756e-06, Final residual = 6.86218e-07, No Iterations 7
time step continuity errors : sum local = 6.7548e-09, global = 1.30605e-10, cumulative = 2.64244e-08
DICPCG:  Solving for p, Initial residual = 5.1902e-06, Final residual = 6.48172e-07, No Iterations 7
time step continuity errors : sum local = 6.38029e-09, global = -4.58469e-10, cumulative = 2.5966e-08
ExecutionTime = 0.09 s  ClockTime = 0 s

Time = 0.43

Courant Number mean: 0.208626 max: 0.311132
DILUPBiCG:  Solving for Ux, Initial residual = 0.000524279, Final residual = 2.44829e-06, No Iterations 2
DILUPBiCG:  Solving for Uy, Initial residual = 0.119048, Final residual = 6.04565e-06, No Iterations 4
DICPCG:  Solving for p, Initial residual = 5.52886e-06, Final residual = 9.39067e-07, No Iterations 5
time step continuity errors : sum local = 9.24374e-09, global = -4.92667e-11, cumulative = 2.59167e-08
DICPCG:  Solving for p, Initial residual = 5.26148e-06, Final residual = 7.21113e-07, No Iterations 5
time step continuity errors : sum local = 7.0983e-09, global = 1.03114e-09, cumulative = 2.69478e-08
ExecutionTime = 0.09 s  ClockTime = 0 s

Time = 0.435

Courant Number mean: 0.208791 max: 0.31139
DILUPBiCG:  Solving for Ux, Initial residual = 0.000499324, Final residual = 2.33564e-06, No Iterations 2
DILUPBiCG:  Solving for Uy, Initial residual = 0.173232, Final residual = 5.05458e-06, No Iterations 4
DICPCG:  Solving for p, Initial residual = 8.13694e-06, Final residual = 8.46433e-07, No Iterations 4
time step continuity errors : sum local = 8.33191e-09, global = -3.1846e-10, cumulative = 2.66294e-08
DICPCG:  Solving for p, Initial residual = 6.37608e-06, Final residual = 8.87653e-07, No Iterations 3
time step continuity errors : sum local = 8.73766e-09, global = 1.33134e-09, cumulative = 2.79607e-08
ExecutionTime = 0.09 s  ClockTime = 0 s

Time = 0.44

Courant Number mean: 0.208948 max: 0.311636
DILUPBiCG:  Solving for Ux, Initial residual = 0.000475576, Final residual = 2.22817e-06, No Iterations 2
DILUPBiCG:  Solving for Uy, Initial residual = 0.0961386, Final residual = 3.03923e-06, No Iterations 4
DICPCG:  Solving for p, Initial residual = 5.35819e-06, Final residual = 5.99769e-07, No Iterations 7
time step continuity errors : sum local = 5.90386e-09, global = -1.10914e-09, cumulative = 2.68516e-08
DICPCG:  Solving for p, Initial residual = 4.29592e-06, Final residual = 4.93711e-07, No Iterations 7
time step continuity errors : sum local = 4.85987e-09, global = 1.25999e-09, cumulative = 2.81116e-08
ExecutionTime = 0.09 s  ClockTime = 0 s

Time = 0.445

Courant Number mean: 0.209098 max: 0.31187
DILUPBiCG:  Solving for Ux, Initial residual = 0.000452976, Final residual = 2.1258e-06, No Iterations 2
DILUPBiCG:  Solving for Uy, Initial residual = 0.0844072, Final residual = 2.52648e-06, No Iterations 4
DICPCG:  Solving for p, Initial residual = 4.49907e-06, Final residual = 6.84474e-07, No Iterations 7
time step continuity errors : sum local = 6.73767e-09, global = 2.47407e-10, cumulative = 2.8359e-08
DICPCG:  Solving for p, Initial residual = 3.71357e-06, Final residual = 5.47968e-07, No Iterations 7
time step continuity errors : sum local = 5.39396e-09, global = -2.19609e-10, cumulative = 2.81394e-08
ExecutionTime = 0.09 s  ClockTime = 0 s

Time = 0.45

Courant Number mean: 0.209241 max: 0.312093
DILUPBiCG:  Solving for Ux, Initial residual = 0.000431467, Final residual = 2.02793e-06, No Iterations 2
DILUPBiCG:  Solving for Uy, Initial residual = 0.0905068, Final residual = 2.65528e-06, No Iterations 4
DICPCG:  Solving for p, Initial residual = 5.10421e-06, Final residual = 9.26523e-07, No Iterations 6
time step continuity errors : sum local = 9.1203e-09, global = 5.96751e-10, cumulative = 2.87361e-08
DICPCG:  Solving for p, Initial residual = 4.63757e-06, Final residual = 9.9766e-07, No Iterations 4
time step continuity errors : sum local = 9.82053e-09, global = 7.51907e-10, cumulative = 2.9488e-08
ExecutionTime = 0.1 s  ClockTime = 0 s

Time = 0.455

Courant Number mean: 0.209377 max: 0.312306
DILUPBiCG:  Solving for Ux, Initial residual = 0.00041099, Final residual = 1.93468e-06, No Iterations 2
DILUPBiCG:  Solving for Uy, Initial residual = 0.149273, Final residual = 4.33371e-06, No Iterations 4
DICPCG:  Solving for p, Initial residual = 6.64567e-06, Final residual = 8.3728e-07, No Iterations 7
time step continuity errors : sum local = 8.24184e-09, global = 4.52206e-10, cumulative = 2.99402e-08
DICPCG:  Solving for p, Initial residual = 5.05166e-06, Final residual = 9.31505e-07, No Iterations 4
time step continuity errors : sum local = 9.16935e-09, global = 2.86986e-10, cumulative = 3.02272e-08
ExecutionTime = 0.1 s  ClockTime = 0 s

Time = 0.46

Courant Number mean: 0.209506 max: 0.312509
DILUPBiCG:  Solving for Ux, Initial residual = 0.0003915, Final residual = 1.84537e-06, No Iterations 2
DILUPBiCG:  Solving for Uy, Initial residual = 0.0786509, Final residual = 6.97113e-06, No Iterations 4
DICPCG:  Solving for p, Initial residual = 5.01307e-06, Final residual = 4.06696e-07, No Iterations 7
time step continuity errors : sum local = 4.00335e-09, global = -5.43084e-10, cumulative = 2.96841e-08
DICPCG:  Solving for p, Initial residual = 4.34231e-06, Final residual = 3.34319e-07, No Iterations 7
time step continuity errors : sum local = 3.2909e-09, global = -5.5831e-10, cumulative = 2.91258e-08
ExecutionTime = 0.1 s  ClockTime = 0 s

Time = 0.465

Courant Number mean: 0.20963 max: 0.312703
DILUPBiCG:  Solving for Ux, Initial residual = 0.000372946, Final residual = 1.75976e-06, No Iterations 2
DILUPBiCG:  Solving for Uy, Initial residual = 0.135892, Final residual = 4.23131e-06, No Iterations 4
DICPCG:  Solving for p, Initial residual = 4.40256e-06, Final residual = 7.33614e-07, No Iterations 4
time step continuity errors : sum local = 7.2214e-09, global = 1.89522e-09, cumulative = 3.10211e-08
DICPCG:  Solving for p, Initial residual = 4.00087e-06, Final residual = 8.79494e-07, No Iterations 4
time step continuity errors : sum local = 8.65738e-09, global = 1.63031e-09, cumulative = 3.26514e-08
ExecutionTime = 0.1 s  ClockTime = 0 s

Time = 0.47

Courant Number mean: 0.209748 max: 0.312887
DILUPBiCG:  Solving for Ux, Initial residual = 0.000355278, Final residual = 1.67928e-06, No Iterations 2
DILUPBiCG:  Solving for Uy, Initial residual = 0.121917, Final residual = 4.12335e-06, No Iterations 4
DICPCG:  Solving for p, Initial residual = 5.28404e-06, Final residual = 8.5136e-07, No Iterations 3
time step continuity errors : sum local = 8.38046e-09, global = 3.12852e-09, cumulative = 3.57799e-08
DICPCG:  Solving for p, Initial residual = 4.26483e-06, Final residual = 7.96773e-07, No Iterations 3
time step continuity errors : sum local = 7.84313e-09, global = 6.59991e-10, cumulative = 3.64399e-08
ExecutionTime = 0.1 s  ClockTime = 0 s

Time = 0.475

Courant Number mean: 0.20986 max: 0.313063
DILUPBiCG:  Solving for Ux, Initial residual = 0.00033846, Final residual = 1.60047e-06, No Iterations 2
DILUPBiCG:  Solving for Uy, Initial residual = 0.134234, Final residual = 3.55579e-06, No Iterations 4
DICPCG:  Solving for p, Initial residual = 5.27859e-06, Final residual = 8.88336e-07, No Iterations 4
time step continuity errors : sum local = 8.74444e-09, global = 2.41761e-10, cumulative = 3.66816e-08
DICPCG:  Solving for p, Initial residual = 4.22203e-06, Final residual = 7.12402e-07, No Iterations 3
time step continuity errors : sum local = 7.01261e-09, global = 1.31372e-09, cumulative = 3.79953e-08
ExecutionTime = 0.1 s  ClockTime = 0 s

Time = 0.48

Courant Number mean: 0.209968 max: 0.31323
DILUPBiCG:  Solving for Ux, Initial residual = 0.000322446, Final residual = 1.5273e-06, No Iterations 2
DILUPBiCG:  Solving for Uy, Initial residual = 0.128476, Final residual = 3.6034e-06, No Iterations 4
DICPCG:  Solving for p, Initial residual = 4.41459e-06, Final residual = 7.69353e-07, No Iterations 3
time step continuity errors : sum local = 7.57322e-09, global = 6.1008e-10, cumulative = 3.86054e-08
DICPCG:  Solving for p, Initial residual = 3.56294e-06, Final residual = 8.29781e-07, No Iterations 3
time step continuity errors : sum local = 8.16805e-09, global = -4.50735e-10, cumulative = 3.81547e-08
ExecutionTime = 0.1 s  ClockTime = 0 s

Time = 0.485

Courant Number mean: 0.21007 max: 0.31339
DILUPBiCG:  Solving for Ux, Initial residual = 0.000307199, Final residual = 1.4566e-06, No Iterations 2
DILUPBiCG:  Solving for Uy, Initial residual = 0.192927, Final residual = 5.30384e-06, No Iterations 4
DICPCG:  Solving for p, Initial residual = 6.01991e-06, Final residual = 7.90561e-07, No Iterations 5
time step continuity errors : sum local = 7.782e-09, global = 2.0831e-10, cumulative = 3.8363e-08
DICPCG:  Solving for p, Initial residual = 5.04923e-06, Final residual = 5.98273e-07, No Iterations 5
time step continuity errors : sum local = 5.88918e-09, global = -6.88168e-10, cumulative = 3.76748e-08
ExecutionTime = 0.1 s  ClockTime = 0 s

Time = 0.49

Courant Number mean: 0.210167 max: 0.313542
DILUPBiCG:  Solving for Ux, Initial residual = 0.00029268, Final residual = 1.38883e-06, No Iterations 2
DILUPBiCG:  Solving for Uy, Initial residual = 0.222914, Final residual = 6.20009e-06, No Iterations 4
DICPCG:  Solving for p, Initial residual = 5.95623e-06, Final residual = 8.40901e-07, No Iterations 3
time step continuity errors : sum local = 8.27753e-09, global = 3.87995e-10, cumulative = 3.80628e-08
DICPCG:  Solving for p, Initial residual = 4.30458e-06, Final residual = 6.33762e-07, No Iterations 3
time step continuity errors : sum local = 6.23853e-09, global = 2.00089e-10, cumulative = 3.82629e-08
ExecutionTime = 0.1 s  ClockTime = 0 s

Time = 0.495

Courant Number mean: 0.21026 max: 0.313687
DILUPBiCG:  Solving for Ux, Initial residual = 0.000278851, Final residual = 1.32379e-06, No Iterations 2
DILUPBiCG:  Solving for Uy, Initial residual = 0.114396, Final residual = 3.72868e-06, No Iterations 4
DICPCG:  Solving for p, Initial residual = 2.81956e-06, Final residual = 6.97207e-07, No Iterations 3
time step continuity errors : sum local = 6.86305e-09, global = 1.33516e-09, cumulative = 3.95981e-08
DICPCG:  Solving for p, Initial residual = 1.97188e-06, Final residual = 6.79881e-07, No Iterations 1
time step continuity errors : sum local = 6.6925e-09, global = 1.92671e-09, cumulative = 4.15248e-08
ExecutionTime = 0.1 s  ClockTime = 0 s

Time = 0.5

Courant Number mean: 0.210348 max: 0.313825
DILUPBiCG:  Solving for Ux, Initial residual = 0.00026568, Final residual = 1.26362e-06, No Iterations 2
DILUPBiCG:  Solving for Uy, Initial residual = 0.23809, Final residual = 6.6218e-06, No Iterations 4
DICPCG:  Solving for p, Initial residual = 5.03951e-06, Final residual = 9.08238e-07, No Iterations 3
time step continuity errors : sum local = 8.94037e-09, global = -1.19288e-09, cumulative = 4.03319e-08
DICPCG:  Solving for p, Initial residual = 4.25115e-06, Final residual = 3.91614e-07, No Iterations 4
time step continuity errors : sum local = 3.85492e-09, global = 9.91122e-10, cumulative = 4.1323e-08
ExecutionTime = 0.11 s  ClockTime = 0 s

Time = 0.505

Courant Number mean: 0.210433 max: 0.313957
DILUPBiCG:  Solving for Ux, Initial residual = 0.00025314, Final residual = 1.20432e-06, No Iterations 2
DILUPBiCG:  Solving for Uy, Initial residual = 0.0908684, Final residual = 3.08313e-06, No Iterations 4
DICPCG:  Solving for p, Initial residual = 2.29712e-06, Final residual = 8.25243e-07, No Iterations 2
time step continuity errors : sum local = 8.1234e-09, global = 8.27834e-10, cumulative = 4.21509e-08
DICPCG:  Solving for p, Initial residual = 2.8904e-06, Final residual = 8.55767e-07, No Iterations 1
time step continuity errors : sum local = 8.42387e-09, global = 1.43754e-09, cumulative = 4.35884e-08
ExecutionTime = 0.11 s  ClockTime = 0 s

Time = 0.51

Courant Number mean: 0.210513 max: 0.314082
DILUPBiCG:  Solving for Ux, Initial residual = 0.000241195, Final residual = 1.14837e-06, No Iterations 2
DILUPBiCG:  Solving for Uy, Initial residual = 0.280753, Final residual = 7.96236e-06, No Iterations 4
DICPCG:  Solving for p, Initial residual = 5.4418e-06, Final residual = 3.52401e-07, No Iterations 3
time step continuity errors : sum local = 3.46891e-09, global = 2.49207e-10, cumulative = 4.38376e-08
DICPCG:  Solving for p, Initial residual = 4.18534e-06, Final residual = 9.72742e-07, No Iterations 1
time step continuity errors : sum local = 9.57534e-09, global = 2.07049e-10, cumulative = 4.40447e-08
ExecutionTime = 0.11 s  ClockTime = 0 s

Time = 0.515

Courant Number mean: 0.210589 max: 0.314202
DILUPBiCG:  Solving for Ux, Initial residual = 0.00022982, Final residual = 1.09567e-06, No Iterations 2
DILUPBiCG:  Solving for Uy, Initial residual = 0.192415, Final residual = 5.47473e-06, No Iterations 4
DICPCG:  Solving for p, Initial residual = 5.51238e-06, Final residual = 8.16541e-07, No Iterations 3
time step continuity errors : sum local = 8.03776e-09, global = -1.63505e-09, cumulative = 4.24096e-08
DICPCG:  Solving for p, Initial residual = 3.72994e-06, Final residual = 5.86492e-07, No Iterations 3
time step continuity errors : sum local = 5.77324e-09, global = 5.12467e-10, cumulative = 4.29221e-08
ExecutionTime = 0.11 s  ClockTime = 0 s

Time = 0.52

Courant Number mean: 0.210662 max: 0.314316
DILUPBiCG:  Solving for Ux, Initial residual = 0.000218984, Final residual = 1.04387e-06, No Iterations 2
DILUPBiCG:  Solving for Uy, Initial residual = 0.152833, Final residual = 5.78532e-06, No Iterations 4
DICPCG:  Solving for p, Initial residual = 3.70469e-06, Final residual = 9.02376e-07, No Iterations 2
time step continuity errors : sum local = 8.88269e-09, global = 5.21923e-10, cumulative = 4.3444e-08
DICPCG:  Solving for p, Initial residual = 3.34285e-06, Final residual = 7.47176e-07, No Iterations 2
time step continuity errors : sum local = 7.35495e-09, global = -1.32204e-10, cumulative = 4.33118e-08
ExecutionTime = 0.11 s  ClockTime = 0 s

Time = 0.525

Courant Number mean: 0.210732 max: 0.314425
DILUPBiCG:  Solving for Ux, Initial residual = 0.000208664, Final residual = 9.96627e-07, No Iterations 2
DILUPBiCG:  Solving for Uy, Initial residual = 0.176805, Final residual = 5.30788e-06, No Iterations 4
DICPCG:  Solving for p, Initial residual = 4.1366e-06, Final residual = 5.95855e-07, No Iterations 3
time step continuity errors : sum local = 5.8654e-09, global = -3.32635e-10, cumulative = 4.29792e-08
DICPCG:  Solving for p, Initial residual = 2.96825e-06, Final residual = 4.50855e-07, No Iterations 3
time step continuity errors : sum local = 4.43807e-09, global = 8.05863e-12, cumulative = 4.29872e-08
ExecutionTime = 0.11 s  ClockTime = 0 s

Time = 0.53

Courant Number mean: 0.210798 max: 0.314529
DILUPBiCG:  Solving for Ux, Initial residual = 0.000198832, Final residual = 9.4903e-07, No Iterations 2
DILUPBiCG:  Solving for Uy, Initial residual = 0.214079, Final residual = 5.76984e-06, No Iterations 4
DICPCG:  Solving for p, Initial residual = 3.11139e-06, Final residual = 7.48996e-07, No Iterations 2
time step continuity errors : sum local = 7.37287e-09, global = 8.83399e-10, cumulative = 4.38706e-08
DICPCG:  Solving for p, Initial residual = 2.80833e-06, Final residual = 7.14569e-07, No Iterations 1
time step continuity errors : sum local = 7.03398e-09, global = 8.76701e-10, cumulative = 4.47473e-08
ExecutionTime = 0.11 s  ClockTime = 0 s

Time = 0.535

Courant Number mean: 0.210862 max: 0.314628
DILUPBiCG:  Solving for Ux, Initial residual = 0.000189465, Final residual = 9.05954e-07, No Iterations 2
DILUPBiCG:  Solving for Uy, Initial residual = 0.240268, Final residual = 6.14139e-06, No Iterations 4
DICPCG:  Solving for p, Initial residual = 3.98952e-06, Final residual = 5.64949e-07, No Iterations 3
time step continuity errors : sum local = 5.56118e-09, global = -7.20922e-10, cumulative = 4.40264e-08
DICPCG:  Solving for p, Initial residual = 3.13799e-06, Final residual = 4.69801e-07, No Iterations 3
time step continuity errors : sum local = 4.62457e-09, global = 6.56867e-10, cumulative = 4.46833e-08
ExecutionTime = 0.11 s  ClockTime = 0 s

Time = 0.54

Courant Number mean: 0.210922 max: 0.314722
DILUPBiCG:  Solving for Ux, Initial residual = 0.000180544, Final residual = 8.63381e-07, No Iterations 2
DILUPBiCG:  Solving for Uy, Initial residual = 0.196175, Final residual = 5.50947e-06, No Iterations 4
DICPCG:  Solving for p, Initial residual = 2.48831e-06, Final residual = 7.28625e-07, No Iterations 1
time step continuity errors : sum local = 7.17236e-09, global = 4.43184e-10, cumulative = 4.51265e-08
DICPCG:  Solving for p, Initial residual = 2.6789e-06, Final residual = 5.14784e-07, No Iterations 1
time step continuity errors : sum local = 5.06737e-09, global = 1.0795e-09, cumulative = 4.6206e-08
ExecutionTime = 0.11 s  ClockTime = 0 s

Time = 0.545

Courant Number mean: 0.210979 max: 0.314812
DILUPBiCG:  Solving for Ux, Initial residual = 0.000172045, Final residual = 8.23238e-07, No Iterations 2
DILUPBiCG:  Solving for Uy, Initial residual = 0.154674, Final residual = 4.70258e-06, No Iterations 4
DICPCG:  Solving for p, Initial residual = 2.21789e-06, Final residual = 6.39647e-07, No Iterations 1
time step continuity errors : sum local = 6.29649e-09, global = 5.95023e-10, cumulative = 4.6801e-08
DICPCG:  Solving for p, Initial residual = 1.35128e-06, Final residual = 4.81259e-07, No Iterations 1
time step continuity errors : sum local = 4.73736e-09, global = 9.53424e-10, cumulative = 4.77544e-08
ExecutionTime = 0.11 s  ClockTime = 0 s

Time = 0.55

Courant Number mean: 0.211034 max: 0.314897
DILUPBiCG:  Solving for Ux, Initial residual = 0.000163948, Final residual = 7.84821e-07, No Iterations 2
DILUPBiCG:  Solving for Uy, Initial residual = 0.165966, Final residual = 4.84405e-06, No Iterations 4
DICPCG:  Solving for p, Initial residual = 1.7245e-06, Final residual = 4.93866e-07, No Iterations 1
time step continuity errors : sum local = 4.86146e-09, global = -1.03254e-10, cumulative = 4.76512e-08
DICPCG:  Solving for p, Initial residual = 1.25967e-06, Final residual = 4.39636e-07, No Iterations 1
time step continuity errors : sum local = 4.32764e-09, global = 3.21005e-10, cumulative = 4.79722e-08
ExecutionTime = 0.11 s  ClockTime = 0 s

Time = 0.555

Courant Number mean: 0.211086 max: 0.314979
[...]

Courant Number mean: 0.212149 max: 0.31664
DILUPBiCG:  Solving for Ux, Initial residual = 5.0718e-08, Final residual = 5.0718e-08, No Iterations 0
DILUPBiCG:  Solving for Uy, Initial residual = 0.827144, Final residual = 5.65084e-06, No Iterations 4
DICPCG:  Solving for p, Initial residual = 2.79717e-06, Final residual = 4.68341e-07, No Iterations 1
time step continuity errors : sum local = 4.61024e-09, global = -4.75645e-12, cumulative = 1.54366e-07
DICPCG:  Solving for p, Initial residual = 1.84213e-06, Final residual = 3.88281e-07, No Iterations 1
time step continuity errors : sum local = 3.82215e-09, global = -1.94391e-12, cumulative = 1.54364e-07
ExecutionTime = 0.43 s  ClockTime = 1 s

Time = 2.37

Courant Number mean: 0.212149 max: 0.31664
DILUPBiCG:  Solving for Ux, Initial residual = 4.9818e-08, Final residual = 4.9818e-08, No Iterations 0
DILUPBiCG:  Solving for Uy, Initial residual = 0.797137, Final residual = 5.69639e-06, No Iterations 4
DICPCG:  Solving for p, Initial residual = 2.67544e-06, Final residual = 2.98114e-07, No Iterations 1
time step continuity errors : sum local = 2.93456e-09, global = 1.2031e-11, cumulative = 1.54376e-07
DICPCG:  Solving for p, Initial residual = 1.93725e-06, Final residual = 3.10785e-07, No Iterations 1
time step continuity errors : sum local = 3.0593e-09, global = -2.63049e-12, cumulative = 1.54374e-07
ExecutionTime = 0.43 s  ClockTime = 1 s

Time = 2.375

Courant Number mean: 0.212149 max: 0.31664
DILUPBiCG:  Solving for Ux, Initial residual = 4.89295e-08, Final residual = 4.89295e-08, No Iterations 0
DILUPBiCG:  Solving for Uy, Initial residual = 0.868537, Final residual = 5.26072e-06, No Iterations 4
DICPCG:  Solving for p, Initial residual = 1.54656e-06, Final residual = 3.00482e-07, No Iterations 1
time step continuity errors : sum local = 2.95787e-09, global = -2.48087e-12, cumulative = 1.54371e-07
DICPCG:  Solving for p, Initial residual = 9.43524e-07, Final residual = 9.43524e-07, No Iterations 0
time step continuity errors : sum local = 9.28783e-09, global = -2.69076e-12, cumulative = 1.54369e-07
ExecutionTime = 0.43 s  ClockTime = 1 s

Time = 2.38

Courant Number mean: 0.212149 max: 0.31664
DILUPBiCG:  Solving for Ux, Initial residual = 4.81925e-08, Final residual = 4.81925e-08, No Iterations 0
DILUPBiCG:  Solving for Uy, Initial residual = 0.72789, Final residual = 5.18201e-06, No Iterations 4
DICPCG:  Solving for p, Initial residual = 5.62606e-06, Final residual = 5.04708e-07, No Iterations 1
time step continuity errors : sum local = 4.96825e-09, global = 2.55815e-11, cumulative = 1.54394e-07
DICPCG:  Solving for p, Initial residual = 4.29303e-06, Final residual = 5.19157e-07, No Iterations 1
time step continuity errors : sum local = 5.11048e-09, global = -8.18277e-12, cumulative = 1.54386e-07
ExecutionTime = 0.43 s  ClockTime = 1 s

Time = 2.385

Courant Number mean: 0.212149 max: 0.31664
DILUPBiCG:  Solving for Ux, Initial residual = 4.72337e-08, Final residual = 4.72337e-08, No Iterations 0
DILUPBiCG:  Solving for Uy, Initial residual = 0.866685, Final residual = 5.82421e-06, No Iterations 4
DICPCG:  Solving for p, Initial residual = 2.6503e-06, Final residual = 5.11104e-07, No Iterations 1
time step continuity errors : sum local = 5.03119e-09, global = -8.2737e-12, cumulative = 1.54378e-07
DICPCG:  Solving for p, Initial residual = 1.59328e-06, Final residual = 3.96671e-07, No Iterations 1
time step continuity errors : sum local = 3.90474e-09, global = -1.23014e-12, cumulative = 1.54376e-07
ExecutionTime = 0.43 s  ClockTime = 1 s

Time = 2.39

Courant Number mean: 0.212149 max: 0.31664
DILUPBiCG:  Solving for Ux, Initial residual = 4.64479e-08, Final residual = 4.64479e-08, No Iterations 0
DILUPBiCG:  Solving for Uy, Initial residual = 0.796734, Final residual = 5.58536e-06, No Iterations 4
DICPCG:  Solving for p, Initial residual = 3.00366e-06, Final residual = 2.72302e-07, No Iterations 1
time step continuity errors : sum local = 2.68048e-09, global = 8.69485e-12, cumulative = 1.54385e-07
DICPCG:  Solving for p, Initial residual = 2.23337e-06, Final residual = 2.8965e-07, No Iterations 1
time step continuity errors : sum local = 2.85125e-09, global = -2.10058e-12, cumulative = 1.54383e-07
ExecutionTime = 0.43 s  ClockTime = 1 s

Time = 2.395

Courant Number mean: 0.212149 max: 0.31664
DILUPBiCG:  Solving for Ux, Initial residual = 4.55788e-08, Final residual = 4.55788e-08, No Iterations 0
DILUPBiCG:  Solving for Uy, Initial residual = 0.868586, Final residual = 5.37376e-06, No Iterations 4
DICPCG:  Solving for p, Initial residual = 1.34587e-06, Final residual = 2.8172e-07, No Iterations 1
time step continuity errors : sum local = 2.77319e-09, global = -6.08251e-12, cumulative = 1.54377e-07
DICPCG:  Solving for p, Initial residual = 7.7172e-07, Final residual = 7.7172e-07, No Iterations 0
time step continuity errors : sum local = 7.59663e-09, global = -7.88058e-12, cumulative = 1.54369e-07
ExecutionTime = 0.43 s  ClockTime = 1 s

Time = 2.4

Courant Number mean: 0.212149 max: 0.31664
DILUPBiCG:  Solving for Ux, Initial residual = 4.48579e-08, Final residual = 4.48579e-08, No Iterations 0
DILUPBiCG:  Solving for Uy, Initial residual = 0.727874, Final residual = 5.31295e-06, No Iterations 4
DICPCG:  Solving for p, Initial residual = 4.79814e-06, Final residual = 4.92485e-07, No Iterations 1
time step continuity errors : sum local = 4.84792e-09, global = 2.09488e-11, cumulative = 1.5439e-07
DICPCG:  Solving for p, Initial residual = 3.62519e-06, Final residual = 4.87501e-07, No Iterations 1
time step continuity errors : sum local = 4.79886e-09, global = -1.0463e-11, cumulative = 1.5438e-07
ExecutionTime = 0.43 s  ClockTime = 1 s

Time = 2.405

Courant Number mean: 0.212149 max: 0.31664
DILUPBiCG:  Solving for Ux, Initial residual = 4.40004e-08, Final residual = 4.40004e-08, No Iterations 0
DILUPBiCG:  Solving for Uy, Initial residual = 0.823788, Final residual = 4.8852e-06, No Iterations 4
DICPCG:  Solving for p, Initial residual = 2.83847e-06, Final residual = 4.63761e-07, No Iterations 1
time step continuity errors : sum local = 4.56516e-09, global = -5.11444e-12, cumulative = 1.54375e-07
DICPCG:  Solving for p, Initial residual = 1.87526e-06, Final residual = 3.87932e-07, No Iterations 1
time step continuity errors : sum local = 3.81871e-09, global = -3.53883e-12, cumulative = 1.54371e-07
ExecutionTime = 0.43 s  ClockTime = 1 s

Time = 2.41

Courant Number mean: 0.212149 max: 0.31664
DILUPBiCG:  Solving for Ux, Initial residual = 4.32357e-08, Final residual = 4.32357e-08, No Iterations 0
DILUPBiCG:  Solving for Uy, Initial residual = 0.794887, Final residual = 5.32825e-06, No Iterations 4
DICPCG:  Solving for p, Initial residual = 2.66758e-06, Final residual = 2.97636e-07, No Iterations 1
time step continuity errors : sum local = 2.92986e-09, global = 1.24754e-11, cumulative = 1.54383e-07
DICPCG:  Solving for p, Initial residual = 1.928e-06, Final residual = 3.10993e-07, No Iterations 1
time step continuity errors : sum local = 3.06135e-09, global = -4.49594e-12, cumulative = 1.54379e-07
ExecutionTime = 0.43 s  ClockTime = 1 s

Time = 2.415

Courant Number mean: 0.212149 max: 0.31664
DILUPBiCG:  Solving for Ux, Initial residual = 4.24475e-08, Final residual = 4.24475e-08, No Iterations 0
DILUPBiCG:  Solving for Uy, Initial residual = 0.869281, Final residual = 4.9479e-06, No Iterations 4
DICPCG:  Solving for p, Initial residual = 1.55596e-06, Final residual = 3.01378e-07, No Iterations 1
time step continuity errors : sum local = 2.96669e-09, global = -2.56975e-12, cumulative = 1.54376e-07
DICPCG:  Solving for p, Initial residual = 9.49619e-07, Final residual = 9.49619e-07, No Iterations 0
time step continuity errors : sum local = 9.34783e-09, global = -3.23569e-12, cumulative = 1.54373e-07
ExecutionTime = 0.44 s  ClockTime = 1 s

Time = 2.42

Courant Number mean: 0.212149 max: 0.31664
DILUPBiCG:  Solving for Ux, Initial residual = 4.18655e-08, Final residual = 4.18655e-08, No Iterations 0
DILUPBiCG:  Solving for Uy, Initial residual = 0.72592, Final residual = 4.88546e-06, No Iterations 4
DICPCG:  Solving for p, Initial residual = 5.66706e-06, Final residual = 5.02747e-07, No Iterations 1
time step continuity errors : sum local = 4.94894e-09, global = 2.3716e-11, cumulative = 1.54397e-07
DICPCG:  Solving for p, Initial residual = 4.32514e-06, Final residual = 5.18538e-07, No Iterations 1
time step continuity errors : sum local = 5.10438e-09, global = -8.32304e-12, cumulative = 1.54389e-07
ExecutionTime = 0.44 s  ClockTime = 1 s

Time = 2.425

Courant Number mean: 0.212149 max: 0.31664
DILUPBiCG:  Solving for Ux, Initial residual = 4.09866e-08, Final residual = 4.09866e-08, No Iterations 0
DILUPBiCG:  Solving for Uy, Initial residual = 0.868998, Final residual = 5.29566e-06, No Iterations 4
DICPCG:  Solving for p, Initial residual = 2.65176e-06, Final residual = 5.13894e-07, No Iterations 1
time step continuity errors : sum local = 5.05866e-09, global = -9.37662e-12, cumulative = 1.54379e-07
DICPCG:  Solving for p, Initial residual = 1.58429e-06, Final residual = 3.96755e-07, No Iterations 1
time step continuity errors : sum local = 3.90557e-09, global = -1.76381e-12, cumulative = 1.54377e-07
ExecutionTime = 0.44 s  ClockTime = 1 s

Time = 2.43

Courant Number mean: 0.212149 max: 0.31664
DILUPBiCG:  Solving for Ux, Initial residual = 4.03312e-08, Final residual = 4.03312e-08, No Iterations 0
DILUPBiCG:  Solving for Uy, Initial residual = 0.795136, Final residual = 5.20822e-06, No Iterations 4
DICPCG:  Solving for p, Initial residual = 3.03112e-06, Final residual = 2.67868e-07, No Iterations 1
time step continuity errors : sum local = 2.63684e-09, global = 8.40273e-12, cumulative = 1.54386e-07
DICPCG:  Solving for p, Initial residual = 2.25891e-06, Final residual = 2.85756e-07, No Iterations 1
time step continuity errors : sum local = 2.81292e-09, global = -2.46802e-12, cumulative = 1.54383e-07
ExecutionTime = 0.44 s  ClockTime = 1 s

Time = 2.435

Courant Number mean: 0.212149 max: 0.31664
DILUPBiCG:  Solving for Ux, Initial residual = 3.95407e-08, Final residual = 3.95407e-08, No Iterations 0
DILUPBiCG:  Solving for Uy, Initial residual = 0.870464, Final residual = 4.81141e-06, No Iterations 4
DICPCG:  Solving for p, Initial residual = 1.32652e-06, Final residual = 2.78722e-07, No Iterations 1
time step continuity errors : sum local = 2.74368e-09, global = -6.75562e-12, cumulative = 1.54377e-07
DICPCG:  Solving for p, Initial residual = 7.54053e-07, Final residual = 7.54053e-07, No Iterations 0
time step continuity errors : sum local = 7.42272e-09, global = -8.31638e-12, cumulative = 1.54368e-07
ExecutionTime = 0.44 s  ClockTime = 1 s

Time = 2.44

Courant Number mean: 0.212149 max: 0.31664
DILUPBiCG:  Solving for Ux, Initial residual = 3.89563e-08, Final residual = 3.89563e-08, No Iterations 0
DILUPBiCG:  Solving for Uy, Initial residual = 0.729634, Final residual = 4.83341e-06, No Iterations 4
DICPCG:  Solving for p, Initial residual = 4.73831e-06, Final residual = 4.84423e-07, No Iterations 1
time step continuity errors : sum local = 4.76856e-09, global = 2.07006e-11, cumulative = 1.54389e-07
DICPCG:  Solving for p, Initial residual = 3.57824e-06, Final residual = 4.79587e-07, No Iterations 1
time step continuity errors : sum local = 4.72095e-09, global = -1.18012e-11, cumulative = 1.54377e-07
ExecutionTime = 0.44 s  ClockTime = 1 s

Time = 2.445

Courant Number mean: 0.212149 max: 0.31664
DILUPBiCG:  Solving for Ux, Initial residual = 3.8173e-08, Final residual = 3.8173e-08, No Iterations 0
DILUPBiCG:  Solving for Uy, Initial residual = 0.828495, Final residual = 4.63883e-06, No Iterations 4
DICPCG:  Solving for p, Initial residual = 2.80052e-06, Final residual = 4.57518e-07, No Iterations 1
time step continuity errors : sum local = 4.5037e-09, global = -3.54767e-12, cumulative = 1.54374e-07
DICPCG:  Solving for p, Initial residual = 1.84121e-06, Final residual = 3.81348e-07, No Iterations 1
time step continuity errors : sum local = 3.7539e-09, global = -5.03753e-12, cumulative = 1.54369e-07
ExecutionTime = 0.44 s  ClockTime = 1 s

Time = 2.45

Courant Number mean: 0.212149 max: 0.31664
DILUPBiCG:  Solving for Ux, Initial residual = 3.75272e-08, Final residual = 3.75272e-08, No Iterations 0
DILUPBiCG:  Solving for Uy, Initial residual = 0.79368, Final residual = 5.09974e-06, No Iterations 4
DICPCG:  Solving for p, Initial residual = 2.62971e-06, Final residual = 2.92326e-07, No Iterations 1
time step continuity errors : sum local = 2.87759e-09, global = 1.32795e-11, cumulative = 1.54382e-07
DICPCG:  Solving for p, Initial residual = 1.90151e-06, Final residual = 3.05506e-07, No Iterations 1
time step continuity errors : sum local = 3.00733e-09, global = -5.5094e-12, cumulative = 1.54376e-07
ExecutionTime = 0.44 s  ClockTime = 1 s

Time = 2.455

Courant Number mean: 0.212149 max: 0.31664
DILUPBiCG:  Solving for Ux, Initial residual = 3.68241e-08, Final residual = 3.68241e-08, No Iterations 0
DILUPBiCG:  Solving for Uy, Initial residual = 0.869788, Final residual = 4.80683e-06, No Iterations 4
DICPCG:  Solving for p, Initial residual = 1.53631e-06, Final residual = 2.96275e-07, No Iterations 1
time step continuity errors : sum local = 2.91647e-09, global = -2.01705e-12, cumulative = 1.54374e-07
DICPCG:  Solving for p, Initial residual = 9.3816e-07, Final residual = 9.3816e-07, No Iterations 0
time step continuity errors : sum local = 9.23503e-09, global = -3.01243e-12, cumulative = 1.54371e-07
ExecutionTime = 0.44 s  ClockTime = 1 s

Time = 2.46

Courant Number mean: 0.212149 max: 0.31664
DILUPBiCG:  Solving for Ux, Initial residual = 3.64047e-08, Final residual = 3.64047e-08, No Iterations 0
DILUPBiCG:  Solving for Uy, Initial residual = 0.72572, Final residual = 4.77094e-06, No Iterations 4
DICPCG:  Solving for p, Initial residual = 5.59844e-06, Final residual = 4.98607e-07, No Iterations 1
time step continuity errors : sum local = 4.90819e-09, global = 2.2542e-11, cumulative = 1.54394e-07
DICPCG:  Solving for p, Initial residual = 4.27522e-06, Final residual = 5.13787e-07, No Iterations 1
time step continuity errors : sum local = 5.05761e-09, global = -7.74262e-12, cumulative = 1.54386e-07
ExecutionTime = 0.44 s  ClockTime = 1 s

Time = 2.465

Courant Number mean: 0.212149 max: 0.31664
DILUPBiCG:  Solving for Ux, Initial residual = 3.55681e-08, Final residual = 3.55681e-08, No Iterations 0
DILUPBiCG:  Solving for Uy, Initial residual = 0.86936, Final residual = 5.16297e-06, No Iterations 4
DICPCG:  Solving for p, Initial residual = 2.6325e-06, Final residual = 5.06485e-07, No Iterations 1
time step continuity errors : sum local = 4.98573e-09, global = -9.48187e-12, cumulative = 1.54377e-07
DICPCG:  Solving for p, Initial residual = 1.57411e-06, Final residual = 3.90817e-07, No Iterations 1
time step continuity errors : sum local = 3.84712e-09, global = -1.52078e-12, cumulative = 1.54375e-07
ExecutionTime = 0.44 s  ClockTime = 1 s

Time = 2.47

Courant Number mean: 0.212149 max: 0.31664
DILUPBiCG:  Solving for Ux, Initial residual = 3.50262e-08, Final residual = 3.50262e-08, No Iterations 0
DILUPBiCG:  Solving for Uy, Initial residual = 0.794553, Final residual = 5.12646e-06, No Iterations 4
DICPCG:  Solving for p, Initial residual = 2.99667e-06, Final residual = 2.65232e-07, No Iterations 1
time step continuity errors : sum local = 2.61088e-09, global = 8.10882e-12, cumulative = 1.54383e-07
DICPCG:  Solving for p, Initial residual = 2.23286e-06, Final residual = 2.82671e-07, No Iterations 1
time step continuity errors : sum local = 2.78255e-09, global = -1.96586e-12, cumulative = 1.54381e-07
ExecutionTime = 0.44 s  ClockTime = 1 s

Time = 2.475

Courant Number mean: 0.212149 max: 0.31664
DILUPBiCG:  Solving for Ux, Initial residual = 3.4304e-08, Final residual = 3.4304e-08, No Iterations 0
DILUPBiCG:  Solving for Uy, Initial residual = 0.872353, Final residual = 4.77749e-06, No Iterations 4
DICPCG:  Solving for p, Initial residual = 1.31381e-06, Final residual = 2.75168e-07, No Iterations 1
time step continuity errors : sum local = 2.70869e-09, global = -6.87557e-12, cumulative = 1.54374e-07
DICPCG:  Solving for p, Initial residual = 7.45963e-07, Final residual = 7.45963e-07, No Iterations 0
time step continuity errors : sum local = 7.34309e-09, global = -8.35962e-12, cumulative = 1.54366e-07
ExecutionTime = 0.44 s  ClockTime = 1 s

Time = 2.48

Courant Number mean: 0.212149 max: 0.31664
DILUPBiCG:  Solving for Ux, Initial residual = 3.38624e-08, Final residual = 3.38624e-08, No Iterations 0
DILUPBiCG:  Solving for Uy, Initial residual = 0.731182, Final residual = 4.84629e-06, No Iterations 4
DICPCG:  Solving for p, Initial residual = 4.69644e-06, Final residual = 4.78972e-07, No Iterations 1
time step continuity errors : sum local = 4.7149e-09, global = 2.15202e-11, cumulative = 1.54388e-07
DICPCG:  Solving for p, Initial residual = 3.54227e-06, Final residual = 4.74711e-07, No Iterations 1
time step continuity errors : sum local = 4.67296e-09, global = -1.246e-11, cumulative = 1.54375e-07
ExecutionTime = 0.45 s  ClockTime = 1 s

Time = 2.485

Courant Number mean: 0.212149 max: 0.31664
DILUPBiCG:  Solving for Ux, Initial residual = 3.31184e-08, Final residual = 3.31184e-08, No Iterations 0
DILUPBiCG:  Solving for Uy, Initial residual = 0.831077, Final residual = 4.93722e-06, No Iterations 4
DICPCG:  Solving for p, Initial residual = 2.74065e-06, Final residual = 4.52858e-07, No Iterations 1
time step continuity errors : sum local = 4.45783e-09, global = -2.57103e-12, cumulative = 1.54373e-07
DICPCG:  Solving for p, Initial residual = 1.79574e-06, Final residual = 3.762e-07, No Iterations 1
time step continuity errors : sum local = 3.70323e-09, global = -5.43001e-12, cumulative = 1.54367e-07
ExecutionTime = 0.45 s  ClockTime = 1 s

Time = 2.49

Courant Number mean: 0.212149 max: 0.31664
DILUPBiCG:  Solving for Ux, Initial residual = 3.25887e-08, Final residual = 3.25887e-08, No Iterations 0
DILUPBiCG:  Solving for Uy, Initial residual = 0.794064, Final residual = 5.19083e-06, No Iterations 4
DICPCG:  Solving for p, Initial residual = 2.59981e-06, Final residual = 2.88977e-07, No Iterations 1
time step continuity errors : sum local = 2.84462e-09, global = 1.32245e-11, cumulative = 1.5438e-07
DICPCG:  Solving for p, Initial residual = 1.88129e-06, Final residual = 3.01434e-07, No Iterations 1
time step continuity errors : sum local = 2.96725e-09, global = -5.49362e-12, cumulative = 1.54375e-07
ExecutionTime = 0.45 s  ClockTime = 1 s

Time = 2.495

Courant Number mean: 0.212149 max: 0.31664
DILUPBiCG:  Solving for Ux, Initial residual = 3.19457e-08, Final residual = 3.19457e-08, No Iterations 0
DILUPBiCG:  Solving for Uy, Initial residual = 0.869932, Final residual = 4.90701e-06, No Iterations 4
DICPCG:  Solving for p, Initial residual = 1.51776e-06, Final residual = 2.919e-07, No Iterations 1
time step continuity errors : sum local = 2.87339e-09, global = -1.89008e-12, cumulative = 1.54373e-07
DICPCG:  Solving for p, Initial residual = 9.27577e-07, Final residual = 9.27577e-07, No Iterations 0
time step continuity errors : sum local = 9.13085e-09, global = -2.97804e-12, cumulative = 1.5437e-07
ExecutionTime = 0.45 s  ClockTime = 1 s

Time = 2.5

Courant Number mean: 0.212149 max: 0.316641
DILUPBiCG:  Solving for Ux, Initial residual = 3.17342e-08, Final residual = 3.17342e-08, No Iterations 0
DILUPBiCG:  Solving for Uy, Initial residual = 0.726618, Final residual = 4.87291e-06, No Iterations 4
DICPCG:  Solving for p, Initial residual = 5.53124e-06, Final residual = 4.95111e-07, No Iterations 1
time step continuity errors : sum local = 4.87377e-09, global = 2.23616e-11, cumulative = 1.54392e-07
DICPCG:  Solving for p, Initial residual = 4.22399e-06, Final residual = 5.09501e-07, No Iterations 1
time step continuity errors : sum local = 5.01543e-09, global = -7.63883e-12, cumulative = 1.54385e-07
ExecutionTime = 0.45 s  ClockTime = 1 s

End

