/*---------------------------------------------------------------------------*\
| =========                 |                                                 |
| \\      /  F ield         | OpenFOAM: The Open Source CFD Toolbox           |
|  \\    /   O peration     | Version:  v1706                                 |
|   \\  /    A nd           | Web:      www.OpenFOAM.com                      |
|    \\/     M anipulation  |                                                 |
\*---------------------------------------------------------------------------*/
Build  : v1706
Arch   : "LSB;label=32;scalar=64"
Exec   : icoFoam
Date   : Aug 29 2017
Time   : 20:20:11
Host   : "kali"
PID    : 4313
Case   : /root/Desktop/OpenFOAM/NonOffOpenFOAM/FoamCases/ppWallGrad
nProcs : 1
sigFpe : Enabling floating point exception trapping (FOAM_SIGFPE).
fileModificationChecking : Monitoring run-time modified files using timeStampMaster (fileModificationSkew 10)
allowSystemOperations : Allowing user-supplied system call operations

// * * * * * * * * * * * * * * * * * * * * * * * * * * * * * * * * * * * * * //
Create time

Create mesh for time = 0


PISO: Operating solver in PISO mode

Reading transportProperties

Reading field p

Reading field U

Reading/calculating face flux field phi


Starting time loop

Time = 0.005

Courant Number mean: 0 max: 0
DILUPBiCG:  Solving for Ux, Initial residual = 1, Final residual = 3.52448e-06, No Iterations 2
DILUPBiCG:  Solving for Uy, Initial residual = 0, Final residual = 0, No Iterations 0
DICPCG:  Solving for p, Initial residual = 1, Final residual = 6.33735e-07, No Iterations 23
time step continuity errors : sum local = 8.48284e-09, global = 5.45387e-11, cumulative = 5.45387e-11
DICPCG:  Solving for p, Initial residual = 0.207914, Final residual = 9.7421e-07, No Iterations 22
time step continuity errors : sum local = 3.15815e-08, global = 2.05581e-11, cumulative = 7.50968e-11
ExecutionTime = 0 s  ClockTime = 0 s

Time = 0.01

Courant Number mean: 0.0476874 max: 0.343869
DILUPBiCG:  Solving for Ux, Initial residual = 0.186596, Final residual = 1.87285e-07, No Iterations 3
DILUPBiCG:  Solving for Uy, Initial residual = 0.332393, Final residual = 7.99618e-07, No Iterations 3
DICPCG:  Solving for p, Initial residual = 0.507921, Final residual = 3.19723e-07, No Iterations 23
time step continuity errors : sum local = 4.82571e-09, global = -3.46994e-11, cumulative = 4.03974e-11
DICPCG:  Solving for p, Initial residual = 0.280848, Final residual = 1.37891e-07, No Iterations 23
time step continuity errors : sum local = 1.75676e-09, global = 2.07375e-11, cumulative = 6.11349e-11
ExecutionTime = 0.01 s  ClockTime = 0 s

Time = 0.015

Courant Number mean: 0.0739521 max: 0.415344
DILUPBiCG:  Solving for Ux, Initial residual = 0.0921654, Final residual = 6.00355e-07, No Iterations 3
DILUPBiCG:  Solving for Uy, Initial residual = 0.322875, Final residual = 3.84133e-06, No Iterations 3
DICPCG:  Solving for p, Initial residual = 0.252731, Final residual = 1.5457e-07, No Iterations 23
time step continuity errors : sum local = 2.03416e-09, global = 2.49571e-11, cumulative = 8.6092e-11
DICPCG:  Solving for p, Initial residual = 0.133262, Final residual = 7.27002e-07, No Iterations 22
time step continuity errors : sum local = 9.38333e-09, global = -1.28728e-10, cumulative = -4.26357e-11
ExecutionTime = 0.01 s  ClockTime = 0 s

Time = 0.02

Courant Number mean: 0.0969284 max: 0.441128
DILUPBiCG:  Solving for Ux, Initial residual = 0.0659205, Final residual = 1.01164e-06, No Iterations 3
DILUPBiCG:  Solving for Uy, Initial residual = 0.291298, Final residual = 8.81408e-06, No Iterations 3
DICPCG:  Solving for p, Initial residual = 0.160718, Final residual = 8.62779e-07, No Iterations 22
time step continuity errors : sum local = 9.80554e-09, global = -4.06993e-11, cumulative = -8.3335e-11
DICPCG:  Solving for p, Initial residual = 0.0821742, Final residual = 4.29944e-07, No Iterations 22
time step continuity errors : sum local = 4.72318e-09, global = 5.42922e-11, cumulative = -2.90427e-11
ExecutionTime = 0.01 s  ClockTime = 0 s

Time = 0.025

Courant Number mean: 0.116496 max: 0.454148
DILUPBiCG:  Solving for Ux, Initial residual = 0.0541012, Final residual = 1.72404e-06, No Iterations 3
DILUPBiCG:  Solving for Uy, Initial residual = 0.171541, Final residual = 3.51934e-07, No Iterations 4
DICPCG:  Solving for p, Initial residual = 0.0860476, Final residual = 4.40601e-07, No Iterations 22
time step continuity errors : sum local = 4.8016e-09, global = 4.69634e-11, cumulative = 1.79207e-11
DICPCG:  Solving for p, Initial residual = 0.0456865, Final residual = 2.46283e-07, No Iterations 22
time step continuity errors : sum local = 2.6524e-09, global = -1.08389e-11, cumulative = 7.08179e-12
ExecutionTime = 0.01 s  ClockTime = 0 s

Time = 0.03

Courant Number mean: 0.134421 max: 0.462314
DILUPBiCG:  Solving for Ux, Initial residual = 0.0470602, Final residual = 3.06357e-06, No Iterations 3
DILUPBiCG:  Solving for Uy, Initial residual = 0.156455, Final residual = 6.35357e-07, No Iterations 4
DICPCG:  Solving for p, Initial residual = 0.0501509, Final residual = 2.49137e-07, No Iterations 22
time step continuity errors : sum local = 2.58585e-09, global = -1.64253e-11, cumulative = -9.34356e-12
DICPCG:  Solving for p, Initial residual = 0.0257139, Final residual = 1.29553e-07, No Iterations 22
time step continuity errors : sum local = 1.33629e-09, global = 5.94447e-12, cumulative = -3.39908e-12
ExecutionTime = 0.01 s  ClockTime = 0 s

Time = 0.035

Courant Number mean: 0.150851 max: 0.46839
DILUPBiCG:  Solving for Ux, Initial residual = 0.0421224, Final residual = 3.35934e-06, No Iterations 3
DILUPBiCG:  Solving for Uy, Initial residual = 0.112841, Final residual = 8.787e-07, No Iterations 4
DICPCG:  Solving for p, Initial residual = 0.0257145, Final residual = 1.36817e-07, No Iterations 22
time step continuity errors : sum local = 1.40225e-09, global = 2.31209e-12, cumulative = -1.08699e-12
DICPCG:  Solving for p, Initial residual = 0.0140257, Final residual = 6.59842e-08, No Iterations 22
time step continuity errors : sum local = 6.73359e-10, global = -2.01756e-12, cumulative = -3.10455e-12
ExecutionTime = 0.01 s  ClockTime = 0 s

Time = 0.04

Courant Number mean: 0.16619 max: 0.473033
DILUPBiCG:  Solving for Ux, Initial residual = 0.038411, Final residual = 4.16048e-06, No Iterations 3
DILUPBiCG:  Solving for Uy, Initial residual = 0.109713, Final residual = 9.31211e-07, No Iterations 4
DICPCG:  Solving for p, Initial residual = 0.0150374, Final residual = 7.1286e-07, No Iterations 21
time step continuity errors : sum local = 7.20213e-09, global = 1.68517e-12, cumulative = -1.41938e-12
DICPCG:  Solving for p, Initial residual = 0.0076763, Final residual = 5.64046e-07, No Iterations 21
time step continuity errors : sum local = 5.68298e-09, global = 2.30547e-12, cumulative = 8.86088e-13
ExecutionTime = 0.01 s  ClockTime = 0 s

Time = 0.045

Courant Number mean: 0.180561 max: 0.476873
DILUPBiCG:  Solving for Ux, Initial residual = 0.0353743, Final residual = 4.7042e-06, No Iterations 3
DILUPBiCG:  Solving for Uy, Initial residual = 0.080715, Final residual = 1.54539e-06, No Iterations 4
DICPCG:  Solving for p, Initial residual = 0.00704739, Final residual = 5.92061e-07, No Iterations 21
time step continuity errors : sum local = 5.94668e-09, global = -5.93335e-12, cumulative = -5.04726e-12
DICPCG:  Solving for p, Initial residual = 0.00398762, Final residual = 3.00278e-07, No Iterations 21
time step continuity errors : sum local = 3.01064e-09, global = 5.4944e-12, cumulative = 4.47139e-13
ExecutionTime = 0.01 s  ClockTime = 0 s

Time = 0.05

Courant Number mean: 0.194105 max: 0.480054
DILUPBiCG:  Solving for Ux, Initial residual = 0.0328964, Final residual = 5.28376e-06, No Iterations 3
DILUPBiCG:  Solving for Uy, Initial residual = 0.0848873, Final residual = 1.25606e-06, No Iterations 4
DICPCG:  Solving for p, Initial residual = 0.00436524, Final residual = 2.85082e-07, No Iterations 21
time step continuity errors : sum local = 2.85168e-09, global = 1.44555e-11, cumulative = 1.49026e-11
DICPCG:  Solving for p, Initial residual = 0.00215037, Final residual = 1.7508e-07, No Iterations 21
time step continuity errors : sum local = 1.74826e-09, global = -2.04223e-12, cumulative = 1.28604e-11
ExecutionTime = 0.02 s  ClockTime = 0 s

Time = 0.055

Courant Number mean: 0.206908 max: 0.482821
DILUPBiCG:  Solving for Ux, Initial residual = 0.0307099, Final residual = 5.91809e-06, No Iterations 3
DILUPBiCG:  Solving for Uy, Initial residual = 0.0771341, Final residual = 2.52262e-06, No Iterations 4
DICPCG:  Solving for p, Initial residual = 0.00217211, Final residual = 2.03494e-07, No Iterations 21
time step continuity errors : sum local = 2.03025e-09, global = 1.99545e-11, cumulative = 3.28149e-11
DICPCG:  Solving for p, Initial residual = 0.00104808, Final residual = 9.24299e-07, No Iterations 20
time step continuity errors : sum local = 9.21301e-09, global = 2.04292e-10, cumulative = 2.37107e-10
ExecutionTime = 0.02 s  ClockTime = 0 s

Time = 0.06

Courant Number mean: 0.219037 max: 0.485232
DILUPBiCG:  Solving for Ux, Initial residual = 0.0288028, Final residual = 6.53543e-06, No Iterations 3
DILUPBiCG:  Solving for Uy, Initial residual = 0.0770206, Final residual = 1.99795e-06, No Iterations 4
DICPCG:  Solving for p, Initial residual = 0.00130954, Final residual = 4.27854e-07, No Iterations 20
time step continuity errors : sum local = 4.2596e-09, global = -8.14702e-11, cumulative = 1.55636e-10
DICPCG:  Solving for p, Initial residual = 0.000593426, Final residual = 7.63375e-07, No Iterations 19
time step continuity errors : sum local = 7.59232e-09, global = 1.78577e-10, cumulative = 3.34214e-10
ExecutionTime = 0.02 s  ClockTime = 0 s

Time = 0.065

Courant Number mean: 0.230549 max: 0.487382
DILUPBiCG:  Solving for Ux, Initial residual = 0.0271183, Final residual = 7.24649e-06, No Iterations 3
DILUPBiCG:  Solving for Uy, Initial residual = 0.0758543, Final residual = 2.66213e-06, No Iterations 4
DICPCG:  Solving for p, Initial residual = 0.000888475, Final residual = 7.74108e-08, No Iterations 21
time step continuity errors : sum local = 7.69502e-10, global = 4.78144e-12, cumulative = 3.38995e-10
DICPCG:  Solving for p, Initial residual = 0.000286926, Final residual = 1.18957e-07, No Iterations 20
time step continuity errors : sum local = 1.18162e-09, global = -1.22364e-11, cumulative = 3.26759e-10
ExecutionTime = 0.02 s  ClockTime = 0 s

Time = 0.07

Courant Number mean: 0.241487 max: 0.489317
DILUPBiCG:  Solving for Ux, Initial residual = 0.0255512, Final residual = 7.96898e-06, No Iterations 3
DILUPBiCG:  Solving for Uy, Initial residual = 0.0760137, Final residual = 3.05669e-06, No Iterations 4
DICPCG:  Solving for p, Initial residual = 0.000730219, Final residual = 4.43598e-07, No Iterations 20
time step continuity errors : sum local = 4.40367e-09, global = -2.32985e-10, cumulative = 9.37734e-11
DICPCG:  Solving for p, Initial residual = 0.000186195, Final residual = 7.34621e-07, No Iterations 19
time step continuity errors : sum local = 7.28795e-09, global = -1.37602e-11, cumulative = 8.00132e-11
ExecutionTime = 0.02 s  ClockTime = 0 s

Time = 0.075

Courant Number mean: 0.25189 max: 0.491071
DILUPBiCG:  Solving for Ux, Initial residual = 0.0241257, Final residual = 8.76672e-06, No Iterations 3
DILUPBiCG:  Solving for Uy, Initial residual = 0.0762538, Final residual = 3.66029e-06, No Iterations 4
DICPCG:  Solving for p, Initial residual = 0.000584655, Final residual = 8.77422e-07, No Iterations 17
time step continuity errors : sum local = 8.70081e-09, global = -1.75249e-09, cumulative = -1.67248e-09
DICPCG:  Solving for p, Initial residual = 0.000114211, Final residual = 8.74903e-07, No Iterations 18
time step continuity errors : sum local = 8.67114e-09, global = 2.42189e-10, cumulative = -1.43029e-09
ExecutionTime = 0.02 s  ClockTime = 0 s

Time = 0.08

Courant Number mean: 0.26179 max: 0.492675
DILUPBiCG:  Solving for Ux, Initial residual = 0.0228251, Final residual = 9.62699e-06, No Iterations 3
DILUPBiCG:  Solving for Uy, Initial residual = 0.077052, Final residual = 4.16155e-06, No Iterations 4
DICPCG:  Solving for p, Initial residual = 0.000497595, Final residual = 7.52969e-07, No Iterations 18
time step continuity errors : sum local = 7.45987e-09, global = 1.21408e-09, cumulative = -2.16208e-10
DICPCG:  Solving for p, Initial residual = 9.23198e-05, Final residual = 3.1425e-07, No Iterations 19
time step continuity errors : sum local = 3.11193e-09, global = 1.88084e-10, cumulative = -2.81245e-11
ExecutionTime = 0.02 s  ClockTime = 0 s

Time = 0.085

Courant Number mean: 0.271213 max: 0.49415
DILUPBiCG:  Solving for Ux, Initial residual = 0.0216004, Final residual = 1.67802e-06, No Iterations 4
DILUPBiCG:  Solving for Uy, Initial residual = 0.0773296, Final residual = 4.77721e-06, No Iterations 4
DICPCG:  Solving for p, Initial residual = 0.000423227, Final residual = 4.67975e-07, No Iterations 20
time step continuity errors : sum local = 4.6329e-09, global = 2.34961e-11, cumulative = -4.62843e-12
DICPCG:  Solving for p, Initial residual = 6.5153e-05, Final residual = 8.22188e-07, No Iterations 15
time step continuity errors : sum local = 8.13648e-09, global = -4.32385e-09, cumulative = -4.32848e-09
ExecutionTime = 0.02 s  ClockTime = 0 s

Time = 0.09

Courant Number mean: 0.280187 max: 0.495512
DILUPBiCG:  Solving for Ux, Initial residual = 0.0204517, Final residual = 1.70912e-06, No Iterations 4
DILUPBiCG:  Solving for Uy, Initial residual = 0.0777301, Final residual = 5.47471e-06, No Iterations 4
DICPCG:  Solving for p, Initial residual = 0.000352875, Final residual = 3.71151e-07, No Iterations 20
time step continuity errors : sum local = 3.67202e-09, global = 2.38993e-11, cumulative = -4.30458e-09
DICPCG:  Solving for p, Initial residual = 5.62494e-05, Final residual = 6.77224e-07, No Iterations 18
time step continuity errors : sum local = 6.69797e-09, global = -2.90422e-10, cumulative = -4.595e-09
ExecutionTime = 0.02 s  ClockTime = 0 s

Time = 0.095

Courant Number mean: 0.288733 max: 0.496776
DILUPBiCG:  Solving for Ux, Initial residual = 0.0193801, Final residual = 1.71008e-06, No Iterations 4
DILUPBiCG:  Solving for Uy, Initial residual = 0.077195, Final residual = 6.21235e-06, No Iterations 4
DICPCG:  Solving for p, Initial residual = 0.000299261, Final residual = 8.53271e-07, No Iterations 16
time step continuity errors : sum local = 8.43739e-09, global = 4.2098e-09, cumulative = -3.85195e-10
DICPCG:  Solving for p, Initial residual = 4.79561e-05, Final residual = 9.9509e-07, No Iterations 13
time step continuity errors : sum local = 9.83696e-09, global = 2.06692e-09, cumulative = 1.68173e-09
ExecutionTime = 0.03 s  ClockTime = 0 s

Time = 0.1

Courant Number mean: 0.296875 max: 0.497953
DILUPBiCG:  Solving for Ux, Initial residual = 0.018381, Final residual = 1.6928e-06, No Iterations 4
DILUPBiCG:  Solving for Uy, Initial residual = 0.0785518, Final residual = 7.03841e-06, No Iterations 4
DICPCG:  Solving for p, Initial residual = 0.000255408, Final residual = 9.64918e-07, No Iterations 14
time step continuity errors : sum local = 9.53708e-09, global = -1.83337e-09, cumulative = -1.51645e-10
DICPCG:  Solving for p, Initial residual = 4.14319e-05, Final residual = 8.98656e-07, No Iterations 13
time step continuity errors : sum local = 8.88002e-09, global = 1.56983e-09, cumulative = 1.41818e-09
ExecutionTime = 0.03 s  ClockTime = 0 s

Time = 0.105

Courant Number mean: 0.304633 max: 0.499053
DILUPBiCG:  Solving for Ux, Initial residual = 0.0174287, Final residual = 1.66478e-06, No Iterations 4
DILUPBiCG:  Solving for Uy, Initial residual = 0.0827919, Final residual = 7.87066e-06, No Iterations 4
DICPCG:  Solving for p, Initial residual = 0.000219401, Final residual = 5.40998e-07, No Iterations 19
time step continuity errors : sum local = 5.34511e-09, global = 1.39172e-10, cumulative = 1.55735e-09
DICPCG:  Solving for p, Initial residual = 3.65985e-05, Final residual = 4.2529e-07, No Iterations 18
time step continuity errors : sum local = 4.20102e-09, global = -1.83882e-10, cumulative = 1.37347e-09
ExecutionTime = 0.03 s  ClockTime = 0 s

Time = 0.11

Courant Number mean: 0.312025 max: 0.500083
DILUPBiCG:  Solving for Ux, Initial residual = 0.0165357, Final residual = 1.63801e-06, No Iterations 4
DILUPBiCG:  Solving for Uy, Initial residual = 0.0873532, Final residual = 8.70622e-06, No Iterations 4
DICPCG:  Solving for p, Initial residual = 0.000188798, Final residual = 1.9369e-07, No Iterations 20
time step continuity errors : sum local = 1.91306e-09, global = 1.56916e-11, cumulative = 1.38916e-09
DICPCG:  Solving for p, Initial residual = 3.23014e-05, Final residual = 8.82031e-07, No Iterations 13
time step continuity errors : sum local = 8.71018e-09, global = -2.66626e-09, cumulative = -1.2771e-09
ExecutionTime = 0.03 s  ClockTime = 0 s

Time = 0.115

Courant Number mean: 0.31907 max: 0.50105
DILUPBiCG:  Solving for Ux, Initial residual = 0.0156971, Final residual = 1.6129e-06, No Iterations 4
DILUPBiCG:  Solving for Uy, Initial residual = 0.0882603, Final residual = 9.30595e-06, No Iterations 4
DICPCG:  Solving for p, Initial residual = 0.000162284, Final residual = 8.05342e-07, No Iterations 14
time step continuity errors : sum local = 7.95216e-09, global = -2.51802e-09, cumulative = -3.79511e-09
DICPCG:  Solving for p, Initial residual = 2.88221e-05, Final residual = 5.66126e-07, No Iterations 13
time step continuity errors : sum local = 5.58922e-09, global = 1.06718e-09, cumulative = -2.72793e-09
ExecutionTime = 0.03 s  ClockTime = 0 s

Time = 0.12

Courant Number mean: 0.325784 max: 0.501959
DILUPBiCG:  Solving for Ux, Initial residual = 0.0148985, Final residual = 1.58577e-06, No Iterations 4
DILUPBiCG:  Solving for Uy, Initial residual = 0.0869575, Final residual = 9.68371e-06, No Iterations 4
DICPCG:  Solving for p, Initial residual = 0.000140237, Final residual = 7.15525e-07, No Iterations 19
time step continuity errors : sum local = 7.06369e-09, global = 1.57157e-09, cumulative = -1.15636e-09
DICPCG:  Solving for p, Initial residual = 2.52592e-05, Final residual = 2.4485e-07, No Iterations 18
time step continuity errors : sum local = 2.41685e-09, global = -1.10328e-10, cumulative = -1.26669e-09
ExecutionTime = 0.03 s  ClockTime = 0 s

Time = 0.125

Courant Number mean: 0.332184 max: 0.502816
DILUPBiCG:  Solving for Ux, Initial residual = 0.014145, Final residual = 1.56291e-06, No Iterations 4
DILUPBiCG:  Solving for Uy, Initial residual = 0.0845907, Final residual = 9.95213e-06, No Iterations 4
DICPCG:  Solving for p, Initial residual = 0.000121693, Final residual = 5.94988e-07, No Iterations 19
time step continuity errors : sum local = 5.87263e-09, global = 1.42229e-09, cumulative = 1.55593e-10
DICPCG:  Solving for p, Initial residual = 2.24717e-05, Final residual = 9.34658e-07, No Iterations 13
time step continuity errors : sum local = 9.22416e-09, global = -4.26176e-09, cumulative = -4.10617e-09
ExecutionTime = 0.03 s  ClockTime = 0 s

Time = 0.13

Courant Number mean: 0.338282 max: 0.504946
DILUPBiCG:  Solving for Ux, Initial residual = 0.0134344, Final residual = 1.54455e-06, No Iterations 4
DILUPBiCG:  Solving for Uy, Initial residual = 0.0808317, Final residual = 1.08342e-06, No Iterations 5
DICPCG:  Solving for p, Initial residual = 0.000105747, Final residual = 9.8545e-07, No Iterations 13
time step continuity errors : sum local = 9.72502e-09, global = -4.04976e-09, cumulative = -8.15593e-09
DICPCG:  Solving for p, Initial residual = 1.95012e-05, Final residual = 4.61343e-07, No Iterations 13
time step continuity errors : sum local = 4.55236e-09, global = 5.02216e-10, cumulative = -7.65372e-09
ExecutionTime = 0.03 s  ClockTime = 0 s

Time = 0.135

Courant Number mean: 0.344095 max: 0.507214
DILUPBiCG:  Solving for Ux, Initial residual = 0.0127545, Final residual = 1.52641e-06, No Iterations 4
DILUPBiCG:  Solving for Uy, Initial residual = 0.0765462, Final residual = 9.93387e-06, No Iterations 4
DICPCG:  Solving for p, Initial residual = 9.20003e-05, Final residual = 4.52446e-07, No Iterations 19
time step continuity errors : sum local = 4.46443e-09, global = 1.06005e-09, cumulative = -6.59367e-09
DICPCG:  Solving for p, Initial residual = 1.6638e-05, Final residual = 8.32764e-07, No Iterations 17
time step continuity errors : sum local = 8.21645e-09, global = -3.71916e-10, cumulative = -6.96558e-09
ExecutionTime = 0.04 s  ClockTime = 0 s

Time = 0.14

Courant Number mean: 0.349635 max: 0.509362
DILUPBiCG:  Solving for Ux, Initial residual = 0.0121124, Final residual = 1.50843e-06, No Iterations 4
DILUPBiCG:  Solving for Uy, Initial residual = 0.0744446, Final residual = 1.14141e-06, No Iterations 5
DICPCG:  Solving for p, Initial residual = 8.08709e-05, Final residual = 3.73427e-07, No Iterations 19
time step continuity errors : sum local = 3.68433e-09, global = 9.86461e-10, cumulative = -5.97912e-09
DICPCG:  Solving for p, Initial residual = 1.5159e-05, Final residual = 4.63431e-07, No Iterations 17
time step continuity errors : sum local = 4.57198e-09, global = -4.06431e-10, cumulative = -6.38555e-09
ExecutionTime = 0.04 s  ClockTime = 0 s

Time = 0.145

Courant Number mean: 0.354914 max: 0.511691
DILUPBiCG:  Solving for Ux, Initial residual = 0.0115057, Final residual = 1.48792e-06, No Iterations 4
DILUPBiCG:  Solving for Uy, Initial residual = 0.0724199, Final residual = 1.1494e-06, No Iterations 5
DICPCG:  Solving for p, Initial residual = 6.99812e-05, Final residual = 3.38964e-07, No Iterations 19
time step continuity errors : sum local = 3.344e-09, global = 8.6337e-10, cumulative = -5.52218e-09
DICPCG:  Solving for p, Initial residual = 1.26625e-05, Final residual = 5.858e-07, No Iterations 17
time step continuity errors : sum local = 5.77876e-09, global = -3.63352e-10, cumulative = -5.88554e-09
ExecutionTime = 0.04 s  ClockTime = 0 s

Time = 0.15

Courant Number mean: 0.359946 max: 0.514837
DILUPBiCG:  Solving for Ux, Initial residual = 0.010932, Final residual = 1.46537e-06, No Iterations 4
DILUPBiCG:  Solving for Uy, Initial residual = 0.0699169, Final residual = 1.15867e-06, No Iterations 5
DICPCG:  Solving for p, Initial residual = 6.16898e-05, Final residual = 9.02213e-07, No Iterations 18
time step continuity errors : sum local = 8.90001e-09, global = 1.29539e-09, cumulative = -4.59015e-09
DICPCG:  Solving for p, Initial residual = 1.16881e-05, Final residual = 8.42749e-07, No Iterations 16
time step continuity errors : sum local = 8.31294e-09, global = -3.27991e-10, cumulative = -4.91814e-09
ExecutionTime = 0.04 s  ClockTime = 0 s

Time = 0.155

Courant Number mean: 0.364741 max: 0.517821
DILUPBiCG:  Solving for Ux, Initial residual = 0.0103892, Final residual = 1.44094e-06, No Iterations 4
DILUPBiCG:  Solving for Uy, Initial residual = 0.0707714, Final residual = 1.17209e-06, No Iterations 5
DICPCG:  Solving for p, Initial residual = 5.42008e-05, Final residual = 7.27014e-07, No Iterations 18
time step continuity errors : sum local = 7.1713e-09, global = 1.02619e-09, cumulative = -3.89195e-09
DICPCG:  Solving for p, Initial residual = 1.12859e-05, Final residual = 9.08736e-07, No Iterations 11
time step continuity errors : sum local = 8.96337e-09, global = -2.10627e-09, cumulative = -5.99821e-09
ExecutionTime = 0.04 s  ClockTime = 0 s

Time = 0.16

Courant Number mean: 0.369312 max: 0.520652
DILUPBiCG:  Solving for Ux, Initial residual = 0.00987518, Final residual = 1.41498e-06, No Iterations 4
DILUPBiCG:  Solving for Uy, Initial residual = 0.0703461, Final residual = 1.18043e-06, No Iterations 5
DICPCG:  Solving for p, Initial residual = 4.67308e-05, Final residual = 8.22161e-07, No Iterations 12
time step continuity errors : sum local = 8.10946e-09, global = -3.56543e-09, cumulative = -9.56364e-09
DICPCG:  Solving for p, Initial residual = 8.88306e-06, Final residual = 8.92694e-07, No Iterations 10
time step continuity errors : sum local = 8.80477e-09, global = 1.05259e-09, cumulative = -8.51105e-09
ExecutionTime = 0.04 s  ClockTime = 0 s

Time = 0.165

Courant Number mean: 0.373669 max: 0.52334
DILUPBiCG:  Solving for Ux, Initial residual = 0.00938822, Final residual = 1.38809e-06, No Iterations 4
DILUPBiCG:  Solving for Uy, Initial residual = 0.0714672, Final residual = 1.2356e-06, No Iterations 5
DICPCG:  Solving for p, Initial residual = 4.09997e-05, Final residual = 5.60017e-07, No Iterations 18
time step continuity errors : sum local = 5.52357e-09, global = 7.20984e-10, cumulative = -7.79007e-09
DICPCG:  Solving for p, Initial residual = 8.295e-06, Final residual = 7.30841e-07, No Iterations 16
time step continuity errors : sum local = 7.20817e-09, global = 4.14888e-10, cumulative = -7.37518e-09
ExecutionTime = 0.04 s  ClockTime = 0 s

Time = 0.17

Courant Number mean: 0.377821 max: 0.526652
DILUPBiCG:  Solving for Ux, Initial residual = 0.0089267, Final residual = 1.36012e-06, No Iterations 4
DILUPBiCG:  Solving for Uy, Initial residual = 0.06902, Final residual = 1.19398e-06, No Iterations 5
DICPCG:  Solving for p, Initial residual = 3.73596e-05, Final residual = 9.79837e-07, No Iterations 12
time step continuity errors : sum local = 9.66407e-09, global = 3.35526e-09, cumulative = -4.01992e-09
DICPCG:  Solving for p, Initial residual = 7.90688e-06, Final residual = 9.26544e-07, No Iterations 8
time step continuity errors : sum local = 9.13814e-09, global = 1.70323e-09, cumulative = -2.3167e-09
ExecutionTime = 0.04 s  ClockTime = 0 s

Time = 0.175

Courant Number mean: 0.381778 max: 0.529958
DILUPBiCG:  Solving for Ux, Initial residual = 0.00848907, Final residual = 1.33093e-06, No Iterations 4
DILUPBiCG:  Solving for Uy, Initial residual = 0.0665261, Final residual = 1.27258e-06, No Iterations 5
DICPCG:  Solving for p, Initial residual = 3.13182e-05, Final residual = 7.83152e-07, No Iterations 10
time step continuity errors : sum local = 7.72401e-09, global = 1.37537e-09, cumulative = -9.41325e-10
DICPCG:  Solving for p, Initial residual = 6.74635e-06, Final residual = 7.56331e-07, No Iterations 6
time step continuity errors : sum local = 7.45926e-09, global = 2.48767e-09, cumulative = 1.54634e-09
ExecutionTime = 0.04 s  ClockTime = 0 s

Time = 0.18

Courant Number mean: 0.38555 max: 0.533101
DILUPBiCG:  Solving for Ux, Initial residual = 0.00807151, Final residual = 1.30031e-06, No Iterations 4
DILUPBiCG:  Solving for Uy, Initial residual = 0.0664161, Final residual = 9.74281e-06, No Iterations 4
DICPCG:  Solving for p, Initial residual = 2.87106e-05, Final residual = 8.66993e-07, No Iterations 13
time step continuity errors : sum local = 8.55078e-09, global = 2.52211e-11, cumulative = 1.57157e-09
DICPCG:  Solving for p, Initial residual = 7.58491e-06, Final residual = 8.96199e-07, No Iterations 9
time step continuity errors : sum local = 8.83861e-09, global = -2.0734e-09, cumulative = -5.01833e-10
ExecutionTime = 0.04 s  ClockTime = 0 s

Time = 0.185

Courant Number mean: 0.389144 max: 0.536091
DILUPBiCG:  Solving for Ux, Initial residual = 0.00767517, Final residual = 1.26885e-06, No Iterations 4
DILUPBiCG:  Solving for Uy, Initial residual = 0.0645229, Final residual = 8.92439e-06, No Iterations 4
DICPCG:  Solving for p, Initial residual = 2.5977e-05, Final residual = 9.90885e-07, No Iterations 13
time step continuity errors : sum local = 9.77258e-09, global = -1.45831e-09, cumulative = -1.96014e-09
DICPCG:  Solving for p, Initial residual = 7.38055e-06, Final residual = 9.5261e-07, No Iterations 11
time step continuity errors : sum local = 9.39487e-09, global = 1.36944e-09, cumulative = -5.90698e-10
ExecutionTime = 0.05 s  ClockTime = 0 s

Time = 0.19

Courant Number mean: 0.39257 max: 0.538935
DILUPBiCG:  Solving for Ux, Initial residual = 0.00729921, Final residual = 1.23676e-06, No Iterations 4
DILUPBiCG:  Solving for Uy, Initial residual = 0.0636153, Final residual = 9.65773e-06, No Iterations 4
DICPCG:  Solving for p, Initial residual = 2.21241e-05, Final residual = 8.68737e-07, No Iterations 15
time step continuity errors : sum local = 8.56785e-09, global = -1.51126e-09, cumulative = -2.10196e-09
DICPCG:  Solving for p, Initial residual = 6.51112e-06, Final residual = 3.99295e-07, No Iterations 14
time step continuity errors : sum local = 3.93794e-09, global = 2.98238e-10, cumulative = -1.80372e-09
ExecutionTime = 0.05 s  ClockTime = 0 s

Time = 0.195

Courant Number mean: 0.395836 max: 0.541641
DILUPBiCG:  Solving for Ux, Initial residual = 0.00694066, Final residual = 1.20423e-06, No Iterations 4
DILUPBiCG:  Solving for Uy, Initial residual = 0.0631934, Final residual = 1.38608e-06, No Iterations 5
DICPCG:  Solving for p, Initial residual = 1.94036e-05, Final residual = 7.99991e-07, No Iterations 6
time step continuity errors : sum local = 7.88984e-09, global = -1.29695e-09, cumulative = -3.10067e-09
DICPCG:  Solving for p, Initial residual = 6.00318e-06, Final residual = 7.01336e-07, No Iterations 5
time step continuity errors : sum local = 6.91675e-09, global = 2.02734e-10, cumulative = -2.89794e-09
ExecutionTime = 0.05 s  ClockTime = 0 s

Time = 0.2

Courant Number mean: 0.398948 max: 0.544613
DILUPBiCG:  Solving for Ux, Initial residual = 0.00659996, Final residual = 1.1712e-06, No Iterations 4
DILUPBiCG:  Solving for Uy, Initial residual = 0.0657744, Final residual = 1.36281e-06, No Iterations 5
DICPCG:  Solving for p, Initial residual = 1.87178e-05, Final residual = 8.71509e-07, No Iterations 12
time step continuity errors : sum local = 8.5952e-09, global = -8.25354e-10, cumulative = -3.72329e-09
DICPCG:  Solving for p, Initial residual = 6.02397e-06, Final residual = 8.82596e-07, No Iterations 11
time step continuity errors : sum local = 8.70441e-09, global = 2.83364e-10, cumulative = -3.43993e-09
ExecutionTime = 0.05 s  ClockTime = 0 s

Time = 0.205

Courant Number mean: 0.401913 max: 0.547658
DILUPBiCG:  Solving for Ux, Initial residual = 0.00627674, Final residual = 1.13796e-06, No Iterations 4
DILUPBiCG:  Solving for Uy, Initial residual = 0.0626814, Final residual = 1.60717e-06, No Iterations 5
DICPCG:  Solving for p, Initial residual = 1.50693e-05, Final residual = 9.07303e-07, No Iterations 10
time step continuity errors : sum local = 8.94826e-09, global = -3.18122e-09, cumulative = -6.62115e-09
DICPCG:  Solving for p, Initial residual = 5.34853e-06, Final residual = 8.79012e-07, No Iterations 7
time step continuity errors : sum local = 8.66912e-09, global = 1.12085e-09, cumulative = -5.5003e-09
ExecutionTime = 0.05 s  ClockTime = 0 s

Time = 0.21

Courant Number mean: 0.40474 max: 0.550557
DILUPBiCG:  Solving for Ux, Initial residual = 0.00597001, Final residual = 1.10467e-06, No Iterations 4
DILUPBiCG:  Solving for Uy, Initial residual = 0.0652508, Final residual = 1.6285e-06, No Iterations 5
DICPCG:  Solving for p, Initial residual = 1.50409e-05, Final residual = 8.93367e-07, No Iterations 14
time step continuity errors : sum local = 8.81086e-09, global = 1.04108e-09, cumulative = -4.45922e-09
DICPCG:  Solving for p, Initial residual = 6.17814e-06, Final residual = 7.56763e-07, No Iterations 15
time step continuity errors : sum local = 7.46352e-09, global = -3.28657e-10, cumulative = -4.78788e-09
ExecutionTime = 0.05 s  ClockTime = 0 s

Time = 0.215

Courant Number mean: 0.407434 max: 0.553317
DILUPBiCG:  Solving for Ux, Initial residual = 0.00567887, Final residual = 1.0715e-06, No Iterations 4
DILUPBiCG:  Solving for Uy, Initial residual = 0.0641109, Final residual = 1.57649e-06, No Iterations 5
DICPCG:  Solving for p, Initial residual = 1.25352e-05, Final residual = 9.32391e-07, No Iterations 6
time step continuity errors : sum local = 9.19582e-09, global = -2.26654e-09, cumulative = -7.05441e-09
DICPCG:  Solving for p, Initial residual = 5.6548e-06, Final residual = 9.04699e-07, No Iterations 3
time step continuity errors : sum local = 8.92261e-09, global = 1.20331e-10, cumulative = -6.93408e-09
ExecutionTime = 0.05 s  ClockTime = 0 s

Time = 0.22

Courant Number mean: 0.410002 max: 0.555946
DILUPBiCG:  Solving for Ux, Initial residual = 0.00540246, Final residual = 1.0384e-06, No Iterations 4
DILUPBiCG:  Solving for Uy, Initial residual = 0.063589, Final residual = 1.60852e-06, No Iterations 5
DICPCG:  Solving for p, Initial residual = 1.17135e-05, Final residual = 9.45169e-07, No Iterations 9
time step continuity errors : sum local = 9.32193e-09, global = 4.14201e-09, cumulative = -2.79208e-09
DICPCG:  Solving for p, Initial residual = 5.28525e-06, Final residual = 6.95002e-07, No Iterations 8
time step continuity errors : sum local = 6.85454e-09, global = 2.21799e-09, cumulative = -5.74086e-10
ExecutionTime = 0.05 s  ClockTime = 0 s

Time = 0.225

Courant Number mean: 0.412449 max: 0.55845
DILUPBiCG:  Solving for Ux, Initial residual = 0.00513999, Final residual = 1.00569e-06, No Iterations 4
DILUPBiCG:  Solving for Uy, Initial residual = 0.0686529, Final residual = 1.56955e-06, No Iterations 5
DICPCG:  Solving for p, Initial residual = 9.87407e-06, Final residual = 6.19889e-07, No Iterations 6
time step continuity errors : sum local = 6.11386e-09, global = -2.35839e-09, cumulative = -2.93248e-09
DICPCG:  Solving for p, Initial residual = 4.55953e-06, Final residual = 5.18741e-07, No Iterations 5
time step continuity errors : sum local = 5.11622e-09, global = -1.37094e-09, cumulative = -4.30342e-09
ExecutionTime = 0.05 s  ClockTime = 0 s

Time = 0.23

Courant Number mean: 0.414782 max: 0.560836
DILUPBiCG:  Solving for Ux, Initial residual = 0.0048907, Final residual = 9.73177e-07, No Iterations 4
DILUPBiCG:  Solving for Uy, Initial residual = 0.067025, Final residual = 1.85902e-06, No Iterations 5
DICPCG:  Solving for p, Initial residual = 9.88401e-06, Final residual = 7.1978e-07, No Iterations 4
time step continuity errors : sum local = 7.09916e-09, global = 2.50269e-09, cumulative = -1.80072e-09
DICPCG:  Solving for p, Initial residual = 4.1805e-06, Final residual = 7.31645e-07, No Iterations 8
time step continuity errors : sum local = 7.21613e-09, global = 9.91753e-10, cumulative = -8.0897e-10
ExecutionTime = 0.06 s  ClockTime = 0 s

Time = 0.235

Courant Number mean: 0.417005 max: 0.563108
DILUPBiCG:  Solving for Ux, Initial residual = 0.00465388, Final residual = 9.41069e-07, No Iterations 4
DILUPBiCG:  Solving for Uy, Initial residual = 0.0690476, Final residual = 1.88387e-06, No Iterations 5
DICPCG:  Solving for p, Initial residual = 8.53761e-06, Final residual = 6.18868e-07, No Iterations 7
time step continuity errors : sum local = 6.10395e-09, global = -1.24719e-09, cumulative = -2.05616e-09
DICPCG:  Solving for p, Initial residual = 4.25515e-06, Final residual = 9.75114e-07, No Iterations 6
time step continuity errors : sum local = 9.61757e-09, global = 1.52163e-09, cumulative = -5.34524e-10
ExecutionTime = 0.06 s  ClockTime = 0 s

Time = 0.24

Courant Number mean: 0.419123 max: 0.565273
DILUPBiCG:  Solving for Ux, Initial residual = 0.00442887, Final residual = 9.09339e-07, No Iterations 4
DILUPBiCG:  Solving for Uy, Initial residual = 0.0825006, Final residual = 2.31174e-06, No Iterations 5
DICPCG:  Solving for p, Initial residual = 8.55491e-06, Final residual = 9.89171e-07, No Iterations 6
time step continuity errors : sum local = 9.75641e-09, global = 2.90828e-09, cumulative = 2.37375e-09
DICPCG:  Solving for p, Initial residual = 6.11829e-06, Final residual = 9.62533e-07, No Iterations 5
time step continuity errors : sum local = 9.49363e-09, global = 2.51502e-09, cumulative = 4.88877e-09
ExecutionTime = 0.06 s  ClockTime = 0 s

Time = 0.245

Courant Number mean: 0.421142 max: 0.567336
DILUPBiCG:  Solving for Ux, Initial residual = 0.00421506, Final residual = 8.78307e-07, No Iterations 4
DILUPBiCG:  Solving for Uy, Initial residual = 0.089428, Final residual = 2.43582e-06, No Iterations 5
DICPCG:  Solving for p, Initial residual = 9.43097e-06, Final residual = 9.96346e-07, No Iterations 6
time step continuity errors : sum local = 9.82732e-09, global = 1.28566e-09, cumulative = 6.17443e-09
DICPCG:  Solving for p, Initial residual = 6.40099e-06, Final residual = 9.8609e-07, No Iterations 5
time step continuity errors : sum local = 9.72611e-09, global = 2.36151e-09, cumulative = 8.53594e-09
ExecutionTime = 0.06 s  ClockTime = 0 s

Time = 0.25

Courant Number mean: 0.423067 max: 0.569301
DILUPBiCG:  Solving for Ux, Initial residual = 0.00401185, Final residual = 8.47711e-07, No Iterations 4
DILUPBiCG:  Solving for Uy, Initial residual = 0.0865025, Final residual = 2.47138e-06, No Iterations 5
DICPCG:  Solving for p, Initial residual = 8.87146e-06, Final residual = 6.27809e-07, No Iterations 8
time step continuity errors : sum local = 6.1924e-09, global = 1.05004e-09, cumulative = 9.58598e-09
DICPCG:  Solving for p, Initial residual = 5.42101e-06, Final residual = 5.53518e-07, No Iterations 7
time step continuity errors : sum local = 5.4596e-09, global = 1.33123e-09, cumulative = 1.09172e-08
ExecutionTime = 0.06 s  ClockTime = 0 s

Time = 0.255

Courant Number mean: 0.424901 max: 0.571352
DILUPBiCG:  Solving for Ux, Initial residual = 0.00381869, Final residual = 8.17773e-07, No Iterations 4
DILUPBiCG:  Solving for Uy, Initial residual = 0.0686068, Final residual = 2.2285e-06, No Iterations 5
DICPCG:  Solving for p, Initial residual = 6.67688e-06, Final residual = 8.55261e-07, No Iterations 7
time step continuity errors : sum local = 8.43598e-09, global = -3.06413e-09, cumulative = 7.85308e-09
DICPCG:  Solving for p, Initial residual = 4.09126e-06, Final residual = 7.55754e-07, No Iterations 6
time step continuity errors : sum local = 7.45445e-09, global = -2.47471e-10, cumulative = 7.60561e-09
ExecutionTime = 0.06 s  ClockTime = 0 s

Time = 0.26

Courant Number mean: 0.426649 max: 0.573441
DILUPBiCG:  Solving for Ux, Initial residual = 0.00363507, Final residual = 7.88348e-07, No Iterations 4
DILUPBiCG:  Solving for Uy, Initial residual = 0.104922, Final residual = 3.022e-06, No Iterations 5
DICPCG:  Solving for p, Initial residual = 6.493e-06, Final residual = 5.62864e-07, No Iterations 8
time step continuity errors : sum local = 5.55197e-09, global = 1.3806e-09, cumulative = 8.98621e-09
DICPCG:  Solving for p, Initial residual = 4.27201e-06, Final residual = 7.62904e-07, No Iterations 5
time step continuity errors : sum local = 7.52509e-09, global = 2.33331e-09, cumulative = 1.13195e-08
ExecutionTime = 0.06 s  ClockTime = 0 s

Time = 0.265

Courant Number mean: 0.428315 max: 0.575431
DILUPBiCG:  Solving for Ux, Initial residual = 0.00346047, Final residual = 7.59645e-07, No Iterations 4
DILUPBiCG:  Solving for Uy, Initial residual = 0.0857672, Final residual = 2.86186e-06, No Iterations 5
DICPCG:  Solving for p, Initial residual = 6.22307e-06, Final residual = 8.3093e-07, No Iterations 7
time step continuity errors : sum local = 8.19623e-09, global = -1.67186e-09, cumulative = 9.64766e-09
DICPCG:  Solving for p, Initial residual = 4.59365e-06, Final residual = 7.15883e-07, No Iterations 6
time step continuity errors : sum local = 7.06139e-09, global = 7.6704e-10, cumulative = 1.04147e-08
ExecutionTime = 0.06 s  ClockTime = 0 s

Time = 0.27

Courant Number mean: 0.429903 max: 0.577327
DILUPBiCG:  Solving for Ux, Initial residual = 0.00329445, Final residual = 7.31521e-07, No Iterations 4
DILUPBiCG:  Solving for Uy, Initial residual = 0.129677, Final residual = 4.015e-06, No Iterations 5
DICPCG:  Solving for p, Initial residual = 5.79623e-06, Final residual = 6.89877e-07, No Iterations 8
time step continuity errors : sum local = 6.80498e-09, global = 2.17338e-10, cumulative = 1.0632e-08
DICPCG:  Solving for p, Initial residual = 4.02745e-06, Final residual = 9.58025e-07, No Iterations 5
time step continuity errors : sum local = 9.44999e-09, global = 2.31405e-09, cumulative = 1.29461e-08
ExecutionTime = 0.06 s  ClockTime = 0 s

Time = 0.275

Courant Number mean: 0.431416 max: 0.579134
DILUPBiCG:  Solving for Ux, Initial residual = 0.00313655, Final residual = 7.04186e-07, No Iterations 4
DILUPBiCG:  Solving for Uy, Initial residual = 0.103345, Final residual = 3.11707e-06, No Iterations 5
DICPCG:  Solving for p, Initial residual = 6.36835e-06, Final residual = 8.23122e-07, No Iterations 9
time step continuity errors : sum local = 8.11944e-09, global = -1.05867e-09, cumulative = 1.18874e-08
DICPCG:  Solving for p, Initial residual = 4.91367e-06, Final residual = 9.22608e-07, No Iterations 8
time step continuity errors : sum local = 9.10077e-09, global = -2.65418e-10, cumulative = 1.1622e-08
ExecutionTime = 0.06 s  ClockTime = 0 s

Time = 0.28

Courant Number mean: 0.432858 max: 0.580856
DILUPBiCG:  Solving for Ux, Initial residual = 0.00298639, Final residual = 6.77481e-07, No Iterations 4
DILUPBiCG:  Solving for Uy, Initial residual = 0.112377, Final residual = 6.86238e-06, No Iterations 5
DICPCG:  Solving for p, Initial residual = 4.67114e-06, Final residual = 6.04658e-07, No Iterations 3
time step continuity errors : sum local = 5.96454e-09, global = 4.06529e-09, cumulative = 1.56873e-08
DICPCG:  Solving for p, Initial residual = 3.30276e-06, Final residual = 6.96302e-07, No Iterations 7
time step continuity errors : sum local = 6.86854e-09, global = -6.46888e-11, cumulative = 1.56226e-08
ExecutionTime = 0.06 s  ClockTime = 0 s

Time = 0.285

Courant Number mean: 0.434233 max: 0.582497
DILUPBiCG:  Solving for Ux, Initial residual = 0.00284354, Final residual = 6.51561e-07, No Iterations 4
DILUPBiCG:  Solving for Uy, Initial residual = 0.124807, Final residual = 4.47971e-06, No Iterations 5
DICPCG:  Solving for p, Initial residual = 4.8857e-06, Final residual = 5.96056e-07, No Iterations 14
time step continuity errors : sum local = 5.87977e-09, global = -7.80013e-10, cumulative = 1.48426e-08
DICPCG:  Solving for p, Initial residual = 3.91805e-06, Final residual = 7.747e-07, No Iterations 13
time step continuity errors : sum local = 7.64198e-09, global = 1.16653e-09, cumulative = 1.60091e-08
ExecutionTime = 0.06 s  ClockTime = 0 s

Time = 0.29

Courant Number mean: 0.435543 max: 0.584062
DILUPBiCG:  Solving for Ux, Initial residual = 0.00270765, Final residual = 6.26258e-07, No Iterations 4
DILUPBiCG:  Solving for Uy, Initial residual = 0.176496, Final residual = 5.80346e-06, No Iterations 5
DICPCG:  Solving for p, Initial residual = 5.32839e-06, Final residual = 8.77109e-07, No Iterations 5
time step continuity errors : sum local = 8.65233e-09, global = 7.7845e-10, cumulative = 1.67876e-08
DICPCG:  Solving for p, Initial residual = 4.85061e-06, Final residual = 7.28635e-07, No Iterations 3
time step continuity errors : sum local = 7.18768e-09, global = -1.0138e-09, cumulative = 1.57738e-08
ExecutionTime = 0.06 s  ClockTime = 0 s

Time = 0.295

Courant Number mean: 0.436792 max: 0.585552
DILUPBiCG:  Solving for Ux, Initial residual = 0.00257838, Final residual = 6.01777e-07, No Iterations 4
DILUPBiCG:  Solving for Uy, Initial residual = 0.151072, Final residual = 5.24365e-06, No Iterations 5
DICPCG:  Solving for p, Initial residual = 5.55559e-06, Final residual = 8.25536e-07, No Iterations 5
time step continuity errors : sum local = 8.14368e-09, global = 2.63684e-10, cumulative = 1.60375e-08
DICPCG:  Solving for p, Initial residual = 4.69584e-06, Final residual = 6.29646e-07, No Iterations 5
time step continuity errors : sum local = 6.21127e-09, global = 2.35614e-09, cumulative = 1.83936e-08
ExecutionTime = 0.06 s  ClockTime = 0 s

Time = 0.3

Courant Number mean: 0.437982 max: 0.586973
DILUPBiCG:  Solving for Ux, Initial residual = 0.00245536, Final residual = 5.7798e-07, No Iterations 4
DILUPBiCG:  Solving for Uy, Initial residual = 0.181156, Final residual = 4.98267e-06, No Iterations 5
DICPCG:  Solving for p, Initial residual = 5.40822e-06, Final residual = 5.1852e-07, No Iterations 5
time step continuity errors : sum local = 5.11512e-09, global = 8.62922e-10, cumulative = 1.92565e-08
DICPCG:  Solving for p, Initial residual = 4.41252e-06, Final residual = 8.03618e-07, No Iterations 3
time step continuity errors : sum local = 7.92756e-09, global = 9.63418e-10, cumulative = 2.02199e-08
ExecutionTime = 0.07 s  ClockTime = 0 s

Time = 0.305

Courant Number mean: 0.439116 max: 0.588327
DILUPBiCG:  Solving for Ux, Initial residual = 0.00233832, Final residual = 5.54974e-07, No Iterations 4
DILUPBiCG:  Solving for Uy, Initial residual = 0.129966, Final residual = 9.84349e-06, No Iterations 5
DICPCG:  Solving for p, Initial residual = 4.4038e-06, Final residual = 7.27076e-07, No Iterations 5
time step continuity errors : sum local = 7.17257e-09, global = -5.44428e-10, cumulative = 1.96755e-08
DICPCG:  Solving for p, Initial residual = 3.71596e-06, Final residual = 5.40585e-07, No Iterations 5
time step continuity errors : sum local = 5.33284e-09, global = 1.26486e-09, cumulative = 2.09404e-08
ExecutionTime = 0.07 s  ClockTime = 0 s

Time = 0.31

Courant Number mean: 0.440197 max: 0.589617
DILUPBiCG:  Solving for Ux, Initial residual = 0.00222694, Final residual = 5.32664e-07, No Iterations 4
DILUPBiCG:  Solving for Uy, Initial residual = 0.194941, Final residual = 5.86224e-06, No Iterations 5
DICPCG:  Solving for p, Initial residual = 3.94202e-06, Final residual = 9.80995e-07, No Iterations 4
time step continuity errors : sum local = 9.6776e-09, global = 2.35453e-10, cumulative = 2.11758e-08
DICPCG:  Solving for p, Initial residual = 2.15936e-06, Final residual = 6.21431e-07, No Iterations 3
time step continuity errors : sum local = 6.13046e-09, global = -4.66029e-10, cumulative = 2.07098e-08
ExecutionTime = 0.07 s  ClockTime = 0 s

Time = 0.315

Courant Number mean: 0.441227 max: 0.590846
DILUPBiCG:  Solving for Ux, Initial residual = 0.00212094, Final residual = 5.11109e-07, No Iterations 4
DILUPBiCG:  Solving for Uy, Initial residual = 0.225431, Final residual = 1.24509e-06, No Iterations 6
DICPCG:  Solving for p, Initial residual = 4.00869e-06, Final residual = 6.80715e-07, No Iterations 4
time step continuity errors : sum local = 6.71538e-09, global = -1.22083e-09, cumulative = 1.9489e-08
DICPCG:  Solving for p, Initial residual = 2.47182e-06, Final residual = 6.49715e-07, No Iterations 4
time step continuity errors : sum local = 6.40956e-09, global = 1.7436e-09, cumulative = 2.12326e-08
ExecutionTime = 0.07 s  ClockTime = 0 s

Time = 0.32

Courant Number mean: 0.442209 max: 0.592018
DILUPBiCG:  Solving for Ux, Initial residual = 0.00202004, Final residual = 4.90206e-07, No Iterations 4
DILUPBiCG:  Solving for Uy, Initial residual = 0.297572, Final residual = 9.91271e-06, No Iterations 5
DICPCG:  Solving for p, Initial residual = 5.05434e-06, Final residual = 8.77632e-07, No Iterations 5
time step continuity errors : sum local = 8.6581e-09, global = 9.86723e-10, cumulative = 2.22193e-08
DICPCG:  Solving for p, Initial residual = 4.33999e-06, Final residual = 6.07635e-07, No Iterations 3
time step continuity errors : sum local = 5.9945e-09, global = 5.05955e-10, cumulative = 2.27252e-08
ExecutionTime = 0.07 s  ClockTime = 0 s

Time = 0.325

Courant Number mean: 0.443145 max: 0.593135
DILUPBiCG:  Solving for Ux, Initial residual = 0.00192402, Final residual = 4.70102e-07, No Iterations 4
DILUPBiCG:  Solving for Uy, Initial residual = 0.264874, Final residual = 9.0104e-06, No Iterations 5
DICPCG:  Solving for p, Initial residual = 4.38247e-06, Final residual = 9.54845e-07, No Iterations 6
time step continuity errors : sum local = 9.41993e-09, global = 1.36957e-09, cumulative = 2.40948e-08
DICPCG:  Solving for p, Initial residual = 3.6154e-06, Final residual = 7.97381e-07, No Iterations 5
time step continuity errors : sum local = 7.86649e-09, global = 5.79707e-10, cumulative = 2.46745e-08
ExecutionTime = 0.07 s  ClockTime = 0 s

Time = 0.33

Courant Number mean: 0.444037 max: 0.5942
DILUPBiCG:  Solving for Ux, Initial residual = 0.00183261, Final residual = 4.50615e-07, No Iterations 4
DILUPBiCG:  Solving for Uy, Initial residual = 0.418424, Final residual = 2.26991e-06, No Iterations 6
DICPCG:  Solving for p, Initial residual = 4.88695e-06, Final residual = 9.59893e-07, No Iterations 6
time step continuity errors : sum local = 9.46984e-09, global = 1.18359e-09, cumulative = 2.58581e-08
DICPCG:  Solving for p, Initial residual = 4.2324e-06, Final residual = 7.8219e-07, No Iterations 4
time step continuity errors : sum local = 7.7167e-09, global = 2.86562e-10, cumulative = 2.61447e-08
ExecutionTime = 0.07 s  ClockTime = 0 s

Time = 0.335

Courant Number mean: 0.444887 max: 0.595214
DILUPBiCG:  Solving for Ux, Initial residual = 0.0017456, Final residual = 4.31894e-07, No Iterations 4
DILUPBiCG:  Solving for Uy, Initial residual = 0.199032, Final residual = 5.20772e-06, No Iterations 6
DICPCG:  Solving for p, Initial residual = 4.14365e-06, Final residual = 7.9258e-07, No Iterations 7
time step continuity errors : sum local = 7.81929e-09, global = -7.51015e-10, cumulative = 2.53937e-08
DICPCG:  Solving for p, Initial residual = 3.06466e-06, Final residual = 9.80868e-07, No Iterations 6
time step continuity errors : sum local = 9.67685e-09, global = 2.21447e-10, cumulative = 2.56151e-08
ExecutionTime = 0.07 s  ClockTime = 0 s

Time = 0.34

Courant Number mean: 0.445697 max: 0.596181
DILUPBiCG:  Solving for Ux, Initial residual = 0.00166276, Final residual = 4.13743e-07, No Iterations 4
DILUPBiCG:  Solving for Uy, Initial residual = 0.340018, Final residual = 1.76594e-06, No Iterations 6
DICPCG:  Solving for p, Initial residual = 4.16166e-06, Final residual = 7.62682e-07, No Iterations 5
time step continuity errors : sum local = 7.5244e-09, global = 2.13687e-09, cumulative = 2.7752e-08
DICPCG:  Solving for p, Initial residual = 3.42052e-06, Final residual = 9.0265e-07, No Iterations 3
time step continuity errors : sum local = 8.90528e-09, global = 9.04117e-10, cumulative = 2.86561e-08
ExecutionTime = 0.07 s  ClockTime = 0 s

Time = 0.345

Courant Number mean: 0.446469 max: 0.597102
DILUPBiCG:  Solving for Ux, Initial residual = 0.0015839, Final residual = 3.96352e-07, No Iterations 4
DILUPBiCG:  Solving for Uy, Initial residual = 0.19434, Final residual = 9.14245e-06, No Iterations 5
DICPCG:  Solving for p, Initial residual = 3.27732e-06, Final residual = 8.46365e-07, No Iterations 6
time step continuity errors : sum local = 8.35005e-09, global = 1.51311e-09, cumulative = 3.01692e-08
DICPCG:  Solving for p, Initial residual = 3.2247e-06, Final residual = 6.35809e-07, No Iterations 4
time step continuity errors : sum local = 6.27275e-09, global = 2.22742e-10, cumulative = 3.03919e-08
ExecutionTime = 0.07 s  ClockTime = 0 s

Time = 0.35

Courant Number mean: 0.447205 max: 0.597981
DILUPBiCG:  Solving for Ux, Initial residual = 0.00150881, Final residual = 3.79521e-07, No Iterations 4
DILUPBiCG:  Solving for Uy, Initial residual = 0.160856, Final residual = 5.2851e-06, No Iterations 5
DICPCG:  Solving for p, Initial residual = 2.78501e-06, Final residual = 6.55071e-07, No Iterations 7
time step continuity errors : sum local = 6.46284e-09, global = 1.57431e-09, cumulative = 3.19662e-08
DICPCG:  Solving for p, Initial residual = 2.01083e-06, Final residual = 9.4312e-07, No Iterations 4
time step continuity errors : sum local = 9.30469e-09, global = 6.91398e-11, cumulative = 3.20354e-08
ExecutionTime = 0.07 s  ClockTime = 0 s

Time = 0.355

Courant Number mean: 0.447906 max: 0.598818
DILUPBiCG:  Solving for Ux, Initial residual = 0.00143732, Final residual = 3.63416e-07, No Iterations 4
DILUPBiCG:  Solving for Uy, Initial residual = 0.216447, Final residual = 2.11969e-06, No Iterations 6
DICPCG:  Solving for p, Initial residual = 4.18164e-06, Final residual = 9.10969e-07, No Iterations 6
time step continuity errors : sum local = 8.98758e-09, global = -5.76674e-10, cumulative = 3.14587e-08
DICPCG:  Solving for p, Initial residual = 3.47874e-06, Final residual = 6.65365e-07, No Iterations 6
time step continuity errors : sum local = 6.56447e-09, global = -9.39928e-10, cumulative = 3.05188e-08
ExecutionTime = 0.08 s  ClockTime = 0 s

Time = 0.36

Courant Number mean: 0.448574 max: 0.599615
DILUPBiCG:  Solving for Ux, Initial residual = 0.00136925, Final residual = 3.47828e-07, No Iterations 4
DILUPBiCG:  Solving for Uy, Initial residual = 0.361817, Final residual = 2.0047e-06, No Iterations 6
DICPCG:  Solving for p, Initial residual = 4.09498e-06, Final residual = 6.77365e-07, No Iterations 4
time step continuity errors : sum local = 6.68291e-09, global = 3.15396e-09, cumulative = 3.36727e-08
DICPCG:  Solving for p, Initial residual = 2.53607e-06, Final residual = 9.81405e-07, No Iterations 3
time step continuity errors : sum local = 9.68257e-09, global = 1.10311e-09, cumulative = 3.47758e-08
ExecutionTime = 0.08 s  ClockTime = 0 s

Time = 0.365

Courant Number mean: 0.449212 max: 0.600375
DILUPBiCG:  Solving for Ux, Initial residual = 0.00130442, Final residual = 3.32881e-07, No Iterations 4
DILUPBiCG:  Solving for Uy, Initial residual = 0.336356, Final residual = 6.31161e-06, No Iterations 6
DICPCG:  Solving for p, Initial residual = 4.56313e-06, Final residual = 7.07235e-07, No Iterations 4
time step continuity errors : sum local = 6.97766e-09, global = 2.35522e-09, cumulative = 3.71311e-08
DICPCG:  Solving for p, Initial residual = 2.62061e-06, Final residual = 7.7386e-07, No Iterations 3
time step continuity errors : sum local = 7.63499e-09, global = 9.97918e-10, cumulative = 3.8129e-08
ExecutionTime = 0.08 s  ClockTime = 0 s

Time = 0.37

Courant Number mean: 0.449819 max: 0.6011
DILUPBiCG:  Solving for Ux, Initial residual = 0.0012427, Final residual = 3.18498e-07, No Iterations 4
DILUPBiCG:  Solving for Uy, Initial residual = 0.520869, Final residual = 3.60463e-06, No Iterations 6
DICPCG:  Solving for p, Initial residual = 6.24567e-06, Final residual = 7.89744e-07, No Iterations 3
time step continuity errors : sum local = 7.79177e-09, global = 5.17392e-10, cumulative = 3.86464e-08
DICPCG:  Solving for p, Initial residual = 4.65366e-06, Final residual = 9.88446e-07, No Iterations 2
time step continuity errors : sum local = 9.7522e-09, global = 9.90583e-10, cumulative = 3.9637e-08
ExecutionTime = 0.08 s  ClockTime = 0 s

Time = 0.375

Courant Number mean: 0.450397 max: 0.60179
DILUPBiCG:  Solving for Ux, Initial residual = 0.00118391, Final residual = 3.04683e-07, No Iterations 4
DILUPBiCG:  Solving for Uy, Initial residual = 0.524326, Final residual = 2.80536e-06, No Iterations 6
DICPCG:  Solving for p, Initial residual = 6.44745e-06, Final residual = 5.48791e-07, No Iterations 4
time step continuity errors : sum local = 5.41452e-09, global = -6.42457e-10, cumulative = 3.89945e-08
DICPCG:  Solving for p, Initial residual = 4.89625e-06, Final residual = 5.75e-07, No Iterations 3
time step continuity errors : sum local = 5.67311e-09, global = -3.38309e-11, cumulative = 3.89607e-08
ExecutionTime = 0.08 s  ClockTime = 0 s

Time = 0.38

Courant Number mean: 0.450949 max: 0.602448
DILUPBiCG:  Solving for Ux, Initial residual = 0.00112794, Final residual = 2.91429e-07, No Iterations 4
DILUPBiCG:  Solving for Uy, Initial residual = 0.332086, Final residual = 1.89791e-06, No Iterations 6
DICPCG:  Solving for p, Initial residual = 3.20027e-06, Final residual = 9.68409e-07, No Iterations 3
time step continuity errors : sum local = 9.55463e-09, global = -1.02814e-09, cumulative = 3.79325e-08
DICPCG:  Solving for p, Initial residual = 1.97473e-06, Final residual = 7.98959e-07, No Iterations 2
time step continuity errors : sum local = 7.88278e-09, global = -1.3101e-09, cumulative = 3.66224e-08
ExecutionTime = 0.08 s  ClockTime = 0 s

Time = 0.385

Courant Number mean: 0.451474 max: 0.603076
DILUPBiCG:  Solving for Ux, Initial residual = 0.00107462, Final residual = 2.78704e-07, No Iterations 4
DILUPBiCG:  Solving for Uy, Initial residual = 0.518462, Final residual = 2.72911e-06, No Iterations 6
DICPCG:  Solving for p, Initial residual = 5.27446e-06, Final residual = 4.59264e-07, No Iterations 4
time step continuity errors : sum local = 4.53128e-09, global = -1.45074e-09, cumulative = 3.51717e-08
DICPCG:  Solving for p, Initial residual = 3.62004e-06, Final residual = 7.11472e-07, No Iterations 3
time step continuity errors : sum local = 7.01966e-09, global = -4.58369e-10, cumulative = 3.47133e-08
ExecutionTime = 0.08 s  ClockTime = 0 s

Time = 0.39

Courant Number mean: 0.451975 max: 0.603673
DILUPBiCG:  Solving for Ux, Initial residual = 0.00102384, Final residual = 2.66456e-07, No Iterations 4
DILUPBiCG:  Solving for Uy, Initial residual = 0.400779, Final residual = 2.15548e-06, No Iterations 6
DICPCG:  Solving for p, Initial residual = 4.24324e-06, Final residual = 9.59632e-07, No Iterations 3
time step continuity errors : sum local = 9.46816e-09, global = 1.49139e-09, cumulative = 3.62047e-08
DICPCG:  Solving for p, Initial residual = 2.58995e-06, Final residual = 8.97e-07, No Iterations 2
time step continuity errors : sum local = 8.8502e-09, global = -1.5969e-10, cumulative = 3.6045e-08
ExecutionTime = 0.08 s  ClockTime = 0 s

Time = 0.395

Courant Number mean: 0.452453 max: 0.604243
DILUPBiCG:  Solving for Ux, Initial residual = 0.00097548, Final residual = 2.5478e-07, No Iterations 4
DILUPBiCG:  Solving for Uy, Initial residual = 0.517601, Final residual = 2.32128e-06, No Iterations 6
DICPCG:  Solving for p, Initial residual = 5.55852e-06, Final residual = 9.45777e-07, No Iterations 4
time step continuity errors : sum local = 9.33153e-09, global = -1.39649e-09, cumulative = 3.46485e-08
DICPCG:  Solving for p, Initial residual = 4.13414e-06, Final residual = 7.1431e-07, No Iterations 3
time step continuity errors : sum local = 7.04775e-09, global = 1.1602e-09, cumulative = 3.58087e-08
ExecutionTime = 0.08 s  ClockTime = 0 s

Time = 0.4

Courant Number mean: 0.452908 max: 0.604786
DILUPBiCG:  Solving for Ux, Initial residual = 0.000929414, Final residual = 2.43478e-07, No Iterations 4
DILUPBiCG:  Solving for Uy, Initial residual = 0.362419, Final residual = 1.98029e-06, No Iterations 6
DICPCG:  Solving for p, Initial residual = 3.78373e-06, Final residual = 5.88776e-07, No Iterations 5
time step continuity errors : sum local = 5.8092e-09, global = 2.36507e-10, cumulative = 3.60452e-08
DICPCG:  Solving for p, Initial residual = 3.00616e-06, Final residual = 9.46232e-07, No Iterations 4
time step continuity errors : sum local = 9.33606e-09, global = 1.08225e-09, cumulative = 3.71275e-08
ExecutionTime = 0.09 s  ClockTime = 0 s

Time = 0.405

Courant Number mean: 0.453342 max: 0.605304
DILUPBiCG:  Solving for Ux, Initial residual = 0.000885539, Final residual = 2.32748e-07, No Iterations 4
DILUPBiCG:  Solving for Uy, Initial residual = 0.444319, Final residual = 2.33087e-06, No Iterations 6
DICPCG:  Solving for p, Initial residual = 5.01677e-06, Final residual = 5.5705e-07, No Iterations 7
time step continuity errors : sum local = 5.49621e-09, global = 2.45749e-10, cumulative = 3.73732e-08
DICPCG:  Solving for p, Initial residual = 3.75499e-06, Final residual = 8.24524e-07, No Iterations 5
time step continuity errors : sum local = 8.13527e-09, global = -1.20358e-09, cumulative = 3.61697e-08
ExecutionTime = 0.09 s  ClockTime = 0 s

Time = 0.41

Courant Number mean: 0.453755 max: 0.605797
DILUPBiCG:  Solving for Ux, Initial residual = 0.00084375, Final residual = 9.70314e-06, No Iterations 3
DILUPBiCG:  Solving for Uy, Initial residual = 0.288146, Final residual = 9.78784e-06, No Iterations 5
DICPCG:  Solving for p, Initial residual = 3.40307e-05, Final residual = 7.33421e-07, No Iterations 18
time step continuity errors : sum local = 7.23662e-09, global = -9.79518e-10, cumulative = 3.51902e-08
DICPCG:  Solving for p, Initial residual = 2.41557e-05, Final residual = 9.02843e-07, No Iterations 17
time step continuity errors : sum local = 8.90845e-09, global = -7.42465e-10, cumulative = 3.44477e-08
ExecutionTime = 0.09 s  ClockTime = 0 s

Time = 0.415

Courant Number mean: 0.454152 max: 0.606271
DILUPBiCG:  Solving for Ux, Initial residual = 0.000803629, Final residual = 9.11113e-06, No Iterations 3
DILUPBiCG:  Solving for Uy, Initial residual = 0.23953, Final residual = 4.29976e-06, No Iterations 6
DICPCG:  Solving for p, Initial residual = 2.26404e-05, Final residual = 3.2304e-07, No Iterations 18
time step continuity errors : sum local = 3.18748e-09, global = -2.36097e-11, cumulative = 3.44241e-08
DICPCG:  Solving for p, Initial residual = 2.0421e-05, Final residual = 4.76137e-07, No Iterations 18
time step continuity errors : sum local = 4.69813e-09, global = -9.39294e-11, cumulative = 3.43301e-08
ExecutionTime = 0.09 s  ClockTime = 0 s

Time = 0.42

Courant Number mean: 0.45453 max: 0.606723
DILUPBiCG:  Solving for Ux, Initial residual = 0.000765454, Final residual = 8.72735e-06, No Iterations 3
DILUPBiCG:  Solving for Uy, Initial residual = 0.177379, Final residual = 9.63579e-06, No Iterations 5
DICPCG:  Solving for p, Initial residual = 1.88798e-05, Final residual = 9.44016e-07, No Iterations 17
time step continuity errors : sum local = 9.31479e-09, global = 4.44024e-10, cumulative = 3.47742e-08
DICPCG:  Solving for p, Initial residual = 1.81251e-05, Final residual = 8.47777e-07, No Iterations 17
time step continuity errors : sum local = 8.3652e-09, global = -1.44013e-09, cumulative = 3.3334e-08
ExecutionTime = 0.09 s  ClockTime = 0 s

Time = 0.425

Courant Number mean: 0.454891 max: 0.607153
DILUPBiCG:  Solving for Ux, Initial residual = 0.000729114, Final residual = 8.24325e-06, No Iterations 3
DILUPBiCG:  Solving for Uy, Initial residual = 0.198187, Final residual = 9.76152e-06, No Iterations 5
DICPCG:  Solving for p, Initial residual = 2.02979e-05, Final residual = 4.31137e-07, No Iterations 18
time step continuity errors : sum local = 4.25414e-09, global = -3.72002e-11, cumulative = 3.32968e-08
DICPCG:  Solving for p, Initial residual = 1.91953e-05, Final residual = 4.38565e-07, No Iterations 18
time step continuity errors : sum local = 4.32744e-09, global = 5.10819e-11, cumulative = 3.33479e-08
ExecutionTime = 0.09 s  ClockTime = 0 s

Time = 0.43

Courant Number mean: 0.455234 max: 0.607563
DILUPBiCG:  Solving for Ux, Initial residual = 0.000694508, Final residual = 7.832e-06, No Iterations 3
DILUPBiCG:  Solving for Uy, Initial residual = 0.149614, Final residual = 7.95318e-06, No Iterations 5
DICPCG:  Solving for p, Initial residual = 1.67977e-05, Final residual = 3.73217e-07, No Iterations 18
time step continuity errors : sum local = 3.68265e-09, global = -1.45916e-10, cumulative = 3.3202e-08
DICPCG:  Solving for p, Initial residual = 1.67062e-05, Final residual = 3.86033e-07, No Iterations 18
time step continuity errors : sum local = 3.80911e-09, global = 9.5755e-11, cumulative = 3.32978e-08
ExecutionTime = 0.09 s  ClockTime = 0 s

Time = 0.435

Courant Number mean: 0.455561 max: 0.607954
DILUPBiCG:  Solving for Ux, Initial residual = 0.000661555, Final residual = 7.43006e-06, No Iterations 3
DILUPBiCG:  Solving for Uy, Initial residual = 0.143525, Final residual = 7.72061e-06, No Iterations 5
DICPCG:  Solving for p, Initial residual = 1.63683e-05, Final residual = 3.6634e-07, No Iterations 18
time step continuity errors : sum local = 3.61479e-09, global = -4.35947e-11, cumulative = 3.32542e-08
DICPCG:  Solving for p, Initial residual = 1.62224e-05, Final residual = 3.74468e-07, No Iterations 18
time step continuity errors : sum local = 3.695e-09, global = 7.19537e-11, cumulative = 3.33261e-08
ExecutionTime = 0.09 s  ClockTime = 0 s

Time = 0.44

Courant Number mean: 0.455872 max: 0.608325
DILUPBiCG:  Solving for Ux, Initial residual = 0.000630173, Final residual = 7.05337e-06, No Iterations 3
DILUPBiCG:  Solving for Uy, Initial residual = 0.134581, Final residual = 7.15256e-06, No Iterations 5
DICPCG:  Solving for p, Initial residual = 1.55286e-05, Final residual = 3.32357e-07, No Iterations 18
time step continuity errors : sum local = 3.27948e-09, global = -2.5349e-12, cumulative = 3.33236e-08
DICPCG:  Solving for p, Initial residual = 1.54431e-05, Final residual = 3.535e-07, No Iterations 18
time step continuity errors : sum local = 3.4881e-09, global = 5.89116e-11, cumulative = 3.33825e-08
ExecutionTime = 0.09 s  ClockTime = 0 s

Time = 0.445

Courant Number mean: 0.456169 max: 0.608679
DILUPBiCG:  Solving for Ux, Initial residual = 0.000600285, Final residual = 6.69693e-06, No Iterations 3
DILUPBiCG:  Solving for Uy, Initial residual = 0.125117, Final residual = 6.72651e-06, No Iterations 5
DICPCG:  Solving for p, Initial residual = 1.47724e-05, Final residual = 9.42443e-07, No Iterations 17
time step continuity errors : sum local = 9.29944e-09, global = 8.72279e-10, cumulative = 3.42548e-08
DICPCG:  Solving for p, Initial residual = 1.52929e-05, Final residual = 9.65502e-07, No Iterations 17
time step continuity errors : sum local = 9.52697e-09, global = -7.02628e-10, cumulative = 3.35522e-08
ExecutionTime = 0.1 s  ClockTime = 0 s

Time = 0.45

Courant Number mean: 0.456452 max: 0.609016
DILUPBiCG:  Solving for Ux, Initial residual = 0.00057182, Final residual = 6.36334e-06, No Iterations 3
DILUPBiCG:  Solving for Uy, Initial residual = 0.144891, Final residual = 7.92361e-06, No Iterations 5
DICPCG:  Solving for p, Initial residual = 1.66204e-05, Final residual = 6.83294e-07, No Iterations 17
time step continuity errors : sum local = 6.74233e-09, global = 3.47786e-10, cumulative = 3.38999e-08
DICPCG:  Solving for p, Initial residual = 1.58831e-05, Final residual = 9.07301e-07, No Iterations 17
time step continuity errors : sum local = 8.95269e-09, global = -1.09431e-09, cumulative = 3.28056e-08
ExecutionTime = 0.1 s  ClockTime = 0 s

Time = 0.455

Courant Number mean: 0.456721 max: 0.609337
DILUPBiCG:  Solving for Ux, Initial residual = 0.000544709, Final residual = 6.04303e-06, No Iterations 3
DILUPBiCG:  Solving for Uy, Initial residual = 0.124912, Final residual = 6.87175e-06, No Iterations 5
DICPCG:  Solving for p, Initial residual = 1.46425e-05, Final residual = 8.00181e-07, No Iterations 17
time step continuity errors : sum local = 7.89571e-09, global = 2.07109e-10, cumulative = 3.30127e-08
DICPCG:  Solving for p, Initial residual = 1.46553e-05, Final residual = 9.36485e-07, No Iterations 17
time step continuity errors : sum local = 9.24068e-09, global = -1.04465e-09, cumulative = 3.19681e-08
ExecutionTime = 0.1 s  ClockTime = 0 s

Time = 0.46

Courant Number mean: 0.456978 max: 0.609643
DILUPBiCG:  Solving for Ux, Initial residual = 0.000518887, Final residual = 5.74135e-06, No Iterations 3
DILUPBiCG:  Solving for Uy, Initial residual = 0.121686, Final residual = 6.92119e-06, No Iterations 5
DICPCG:  Solving for p, Initial residual = 1.43324e-05, Final residual = 7.071e-07, No Iterations 17
time step continuity errors : sum local = 6.97725e-09, global = 2.64715e-10, cumulative = 3.22328e-08
DICPCG:  Solving for p, Initial residual = 1.41311e-05, Final residual = 8.87697e-07, No Iterations 17
time step continuity errors : sum local = 8.75928e-09, global = -1.06202e-09, cumulative = 3.11708e-08
ExecutionTime = 0.1 s  ClockTime = 0 s

Time = 0.465

Courant Number mean: 0.457222 max: 0.609935
DILUPBiCG:  Solving for Ux, Initial residual = 0.000494292, Final residual = 5.45549e-06, No Iterations 3
DILUPBiCG:  Solving for Uy, Initial residual = 0.118353, Final residual = 6.84019e-06, No Iterations 5
DICPCG:  Solving for p, Initial residual = 1.35322e-05, Final residual = 7.05603e-07, No Iterations 17
time step continuity errors : sum local = 6.96249e-09, global = 2.36003e-10, cumulative = 3.14068e-08
DICPCG:  Solving for p, Initial residual = 1.34049e-05, Final residual = 8.44288e-07, No Iterations 17
time step continuity errors : sum local = 8.33095e-09, global = -9.85329e-10, cumulative = 3.04215e-08
ExecutionTime = 0.1 s  ClockTime = 0 s

Time = 0.47

Courant Number mean: 0.457455 max: 0.610212
DILUPBiCG:  Solving for Ux, Initial residual = 0.000470865, Final residual = 9.58098e-06, No Iterations 2
DILUPBiCG:  Solving for Uy, Initial residual = 0.111584, Final residual = 6.47134e-06, No Iterations 5
DICPCG:  Solving for p, Initial residual = 4.88548e-05, Final residual = 2.45527e-07, No Iterations 18
time step continuity errors : sum local = 2.42272e-09, global = -1.43647e-10, cumulative = 3.02778e-08
DICPCG:  Solving for p, Initial residual = 2.96651e-05, Final residual = 7.32998e-07, No Iterations 17
time step continuity errors : sum local = 7.23271e-09, global = 3.86954e-10, cumulative = 3.06648e-08
ExecutionTime = 0.1 s  ClockTime = 0 s

Time = 0.475

Courant Number mean: 0.457672 max: 0.610472
DILUPBiCG:  Solving for Ux, Initial residual = 0.000448999, Final residual = 9.10165e-06, No Iterations 2
DILUPBiCG:  Solving for Uy, Initial residual = 0.315033, Final residual = 2.00953e-06, No Iterations 6
DICPCG:  Solving for p, Initial residual = 2.34992e-05, Final residual = 2.42148e-07, No Iterations 18
time step continuity errors : sum local = 2.38934e-09, global = 2.31997e-11, cumulative = 3.0688e-08
DICPCG:  Solving for p, Initial residual = 1.96946e-05, Final residual = 4.02371e-07, No Iterations 18
time step continuity errors : sum local = 3.97028e-09, global = -1.1947e-10, cumulative = 3.05685e-08
ExecutionTime = 0.1 s  ClockTime = 0 s

Time = 0.48

Courant Number mean: 0.457879 max: 0.610722
DILUPBiCG:  Solving for Ux, Initial residual = 0.000428123, Final residual = 8.65888e-06, No Iterations 2
DILUPBiCG:  Solving for Uy, Initial residual = 0.28544, Final residual = 1.84543e-06, No Iterations 6
DICPCG:  Solving for p, Initial residual = 2.1011e-05, Final residual = 2.32871e-07, No Iterations 17
time step continuity errors : sum local = 2.2978e-09, global = 3.02656e-10, cumulative = 3.08711e-08
DICPCG:  Solving for p, Initial residual = 1.88494e-05, Final residual = 4.49659e-07, No Iterations 17
time step continuity errors : sum local = 4.4369e-09, global = 2.05015e-10, cumulative = 3.10762e-08
ExecutionTime = 0.1 s  ClockTime = 0 s

Time = 0.485

Courant Number mean: 0.458078 max: 0.610959
DILUPBiCG:  Solving for Ux, Initial residual = 0.000408199, Final residual = 8.27019e-06, No Iterations 2
DILUPBiCG:  Solving for Uy, Initial residual = 0.228777, Final residual = 1.37335e-06, No Iterations 6
DICPCG:  Solving for p, Initial residual = 1.93768e-05, Final residual = 6.83362e-07, No Iterations 17
time step continuity errors : sum local = 6.74292e-09, global = -6.27907e-10, cumulative = 3.04483e-08
DICPCG:  Solving for p, Initial residual = 1.86685e-05, Final residual = 5.45771e-07, No Iterations 17
time step continuity errors : sum local = 5.38526e-09, global = 7.8414e-10, cumulative = 3.12324e-08
ExecutionTime = 0.1 s  ClockTime = 0 s

Time = 0.49

Courant Number mean: 0.458267 max: 0.611185
DILUPBiCG:  Solving for Ux, Initial residual = 0.000389203, Final residual = 7.8817e-06, No Iterations 2
DILUPBiCG:  Solving for Uy, Initial residual = 0.191152, Final residual = 9.41957e-06, No Iterations 5
DICPCG:  Solving for p, Initial residual = 1.87618e-05, Final residual = 3.37139e-07, No Iterations 17
time step continuity errors : sum local = 3.32665e-09, global = -2.9131e-10, cumulative = 3.09411e-08
DICPCG:  Solving for p, Initial residual = 1.79859e-05, Final residual = 5.07622e-07, No Iterations 17
time step continuity errors : sum local = 5.00885e-09, global = 1.84345e-11, cumulative = 3.09595e-08
ExecutionTime = 0.1 s  ClockTime = 0 s

Time = 0.495

Courant Number mean: 0.458447 max: 0.6114
DILUPBiCG:  Solving for Ux, Initial residual = 0.000371093, Final residual = 7.5254e-06, No Iterations 2
DILUPBiCG:  Solving for Uy, Initial residual = 0.147402, Final residual = 8.41948e-06, No Iterations 5
DICPCG:  Solving for p, Initial residual = 1.79974e-05, Final residual = 6.6676e-07, No Iterations 17
time step continuity errors : sum local = 6.57913e-09, global = -8.21554e-10, cumulative = 3.0138e-08
DICPCG:  Solving for p, Initial residual = 1.75807e-05, Final residual = 3.5903e-07, No Iterations 17
time step continuity errors : sum local = 3.54266e-09, global = 3.75184e-10, cumulative = 3.05132e-08
ExecutionTime = 0.11 s  ClockTime = 0 s

Time = 0.5

Courant Number mean: 0.458619 max: 0.611604
DILUPBiCG:  Solving for Ux, Initial residual = 0.000353827, Final residual = 7.17771e-06, No Iterations 2
DILUPBiCG:  Solving for Uy, Initial residual = 0.131706, Final residual = 7.59263e-06, No Iterations 5
DICPCG:  Solving for p, Initial residual = 1.69488e-05, Final residual = 7.06211e-07, No Iterations 16
time step continuity errors : sum local = 6.96842e-09, global = -9.36604e-10, cumulative = 2.95765e-08
DICPCG:  Solving for p, Initial residual = 1.63534e-05, Final residual = 4.5885e-07, No Iterations 17
time step continuity errors : sum local = 4.52762e-09, global = 1.8412e-10, cumulative = 2.97607e-08
ExecutionTime = 0.11 s  ClockTime = 0 s

Time = 0.505

Courant Number mean: 0.458783 max: 0.611799
DILUPBiCG:  Solving for Ux, Initial residual = 0.000337368, Final residual = 6.85248e-06, No Iterations 2
DILUPBiCG:  Solving for Uy, Initial residual = 0.12008, Final residual = 6.91019e-06, No Iterations 5
DICPCG:  Solving for p, Initial residual = 1.64387e-05, Final residual = 4.09137e-07, No Iterations 17
time step continuity errors : sum local = 4.0371e-09, global = -4.59106e-10, cumulative = 2.93016e-08
DICPCG:  Solving for p, Initial residual = 1.60406e-05, Final residual = 3.31221e-07, No Iterations 17
time step continuity errors : sum local = 3.26827e-09, global = 2.85175e-10, cumulative = 2.95867e-08
ExecutionTime = 0.11 s  ClockTime = 0 s

Time = 0.51

Courant Number mean: 0.458939 max: 0.611986
DILUPBiCG:  Solving for Ux, Initial residual = 0.000321679, Final residual = 6.53828e-06, No Iterations 2
DILUPBiCG:  Solving for Uy, Initial residual = 0.106724, Final residual = 6.36687e-06, No Iterations 5
DICPCG:  Solving for p, Initial residual = 1.53775e-05, Final residual = 9.85309e-07, No Iterations 16
time step continuity errors : sum local = 9.7224e-09, global = -1.30187e-09, cumulative = 2.82849e-08
DICPCG:  Solving for p, Initial residual = 1.53439e-05, Final residual = 4.02508e-07, No Iterations 17
time step continuity errors : sum local = 3.97169e-09, global = 3.87493e-10, cumulative = 2.86724e-08
ExecutionTime = 0.11 s  ClockTime = 0 s

Time = 0.515

Courant Number mean: 0.459088 max: 0.612163
DILUPBiCG:  Solving for Ux, Initial residual = 0.000306722, Final residual = 6.24067e-06, No Iterations 2
DILUPBiCG:  Solving for Uy, Initial residual = 0.111102, Final residual = 6.34601e-06, No Iterations 5
DICPCG:  Solving for p, Initial residual = 1.53725e-05, Final residual = 2.40787e-07, No Iterations 17
time step continuity errors : sum local = 2.37594e-09, global = -1.72394e-10, cumulative = 2.85e-08
DICPCG:  Solving for p, Initial residual = 1.49062e-05, Final residual = 3.42372e-07, No Iterations 17
time step continuity errors : sum local = 3.37831e-09, global = 3.40753e-10, cumulative = 2.88407e-08
ExecutionTime = 0.11 s  ClockTime = 0 s

Time = 0.52

Courant Number mean: 0.45923 max: 0.612333
DILUPBiCG:  Solving for Ux, Initial residual = 0.000292464, Final residual = 5.95584e-06, No Iterations 2
DILUPBiCG:  Solving for Uy, Initial residual = 0.094349, Final residual = 5.686e-06, No Iterations 5
DICPCG:  Solving for p, Initial residual = 1.40262e-05, Final residual = 9.93054e-07, No Iterations 16
time step continuity errors : sum local = 9.79886e-09, global = -1.8401e-09, cumulative = 2.70006e-08
DICPCG:  Solving for p, Initial residual = 1.42165e-05, Final residual = 3.32499e-07, No Iterations 17
time step continuity errors : sum local = 3.2809e-09, global = 1.52363e-10, cumulative = 2.7153e-08
ExecutionTime = 0.11 s  ClockTime = 0 s

Time = 0.525

Courant Number mean: 0.459365 max: 0.612494
DILUPBiCG:  Solving for Ux, Initial residual = 0.000278873, Final residual = 5.68367e-06, No Iterations 2
DILUPBiCG:  Solving for Uy, Initial residual = 0.102504, Final residual = 5.89622e-06, No Iterations 5
DICPCG:  Solving for p, Initial residual = 1.40514e-05, Final residual = 8.63155e-07, No Iterations 16
time step continuity errors : sum local = 8.51711e-09, global = -1.17637e-09, cumulative = 2.59766e-08
DICPCG:  Solving for p, Initial residual = 1.42484e-05, Final residual = 2.22203e-07, No Iterations 17
time step continuity errors : sum local = 2.19256e-09, global = 2.3091e-11, cumulative = 2.59997e-08
ExecutionTime = 0.11 s  ClockTime = 0 s

Time = 0.53

Courant Number mean: 0.459494 max: 0.612648
DILUPBiCG:  Solving for Ux, Initial residual = 0.000265916, Final residual = 5.42428e-06, No Iterations 2
DILUPBiCG:  Solving for Uy, Initial residual = 0.0955179, Final residual = 5.70858e-06, No Iterations 5
DICPCG:  Solving for p, Initial residual = 1.32067e-05, Final residual = 8.47282e-07, No Iterations 16
time step continuity errors : sum local = 8.3605e-09, global = -1.50344e-09, cumulative = 2.44963e-08
DICPCG:  Solving for p, Initial residual = 1.33838e-05, Final residual = 2.74368e-07, No Iterations 17
time step continuity errors : sum local = 2.7073e-09, global = 1.13841e-10, cumulative = 2.46101e-08
ExecutionTime = 0.11 s  ClockTime = 0 s

Time = 0.535

Courant Number mean: 0.459617 max: 0.612795
DILUPBiCG:  Solving for Ux, Initial residual = 0.000253564, Final residual = 5.17606e-06, No Iterations 2
DILUPBiCG:  Solving for Uy, Initial residual = 0.096733, Final residual = 5.69478e-06, No Iterations 5
DICPCG:  Solving for p, Initial residual = 1.27668e-05, Final residual = 7.78958e-07, No Iterations 16
time step continuity errors : sum local = 7.68632e-09, global = -8.38689e-10, cumulative = 2.37714e-08
DICPCG:  Solving for p, Initial residual = 1.28278e-05, Final residual = 2.25813e-07, No Iterations 17
time step continuity errors : sum local = 2.2282e-09, global = 6.14101e-11, cumulative = 2.38328e-08
ExecutionTime = 0.12 s  ClockTime = 0 s

Time = 0.54

Courant Number mean: 0.459735 max: 0.612935
DILUPBiCG:  Solving for Ux, Initial residual = 0.000241787, Final residual = 4.93959e-06, No Iterations 2
DILUPBiCG:  Solving for Uy, Initial residual = 0.0916336, Final residual = 5.4855e-06, No Iterations 5
DICPCG:  Solving for p, Initial residual = 1.19939e-05, Final residual = 7.69418e-07, No Iterations 16
time step continuity errors : sum local = 7.5922e-09, global = -1.25469e-09, cumulative = 2.25781e-08
DICPCG:  Solving for p, Initial residual = 1.21708e-05, Final residual = 2.80521e-07, No Iterations 17
time step continuity errors : sum local = 2.76802e-09, global = 1.68452e-10, cumulative = 2.27466e-08
ExecutionTime = 0.12 s  ClockTime = 0 s

Time = 0.545

Courant Number mean: 0.459847 max: 0.613068
DILUPBiCG:  Solving for Ux, Initial residual = 0.00023056, Final residual = 4.71315e-06, No Iterations 2
DILUPBiCG:  Solving for Uy, Initial residual = 0.0950475, Final residual = 5.61752e-06, No Iterations 5
DICPCG:  Solving for p, Initial residual = 1.167e-05, Final residual = 6.4853e-07, No Iterations 16
time step continuity errors : sum local = 6.39934e-09, global = -5.59408e-10, cumulative = 2.21872e-08
DICPCG:  Solving for p, Initial residual = 1.17269e-05, Final residual = 2.41678e-07, No Iterations 17
time step continuity errors : sum local = 2.38475e-09, global = 1.69829e-10, cumulative = 2.2357e-08
ExecutionTime = 0.12 s  ClockTime = 0 s

Time = 0.55

Courant Number mean: 0.459953 max: 0.61321
DILUPBiCG:  Solving for Ux, Initial residual = 0.000219855, Final residual = 4.49756e-06, No Iterations 2
DILUPBiCG:  Solving for Uy, Initial residual = 0.0909018, Final residual = 5.4131e-06, No Iterations 5
DICPCG:  Solving for p, Initial residual = 1.1027e-05, Final residual = 7.1051e-07, No Iterations 16
time step continuity errors : sum local = 7.01094e-09, global = -1.67553e-09, cumulative = 2.06815e-08
DICPCG:  Solving for p, Initial residual = 1.11929e-05, Final residual = 9.43374e-07, No Iterations 16
time step continuity errors : sum local = 9.30871e-09, global = 1.0481e-09, cumulative = 2.17296e-08
ExecutionTime = 0.12 s  ClockTime = 0 s

Time = 0.555

Courant Number mean: 0.460055 max: 0.613346
[...]
DILUPBiCG:  Solving for Ux, Initial residual = 5.73368e-08, Final residual = 5.73368e-08, No Iterations 0
DILUPBiCG:  Solving for Uy, Initial residual = 0.829579, Final residual = 2.12153e-06, No Iterations 6
DICPCG:  Solving for p, Initial residual = 1.26881e-06, Final residual = 2.6957e-07, No Iterations 1
time step continuity errors : sum local = 2.66003e-09, global = 1.38763e-10, cumulative = 2.73003e-07
DICPCG:  Solving for p, Initial residual = 8.33857e-07, Final residual = 8.33857e-07, No Iterations 0
time step continuity errors : sum local = 8.22824e-09, global = 1.47643e-10, cumulative = 2.73151e-07
ExecutionTime = 0.44 s  ClockTime = 0 s

Time = 2.37

Courant Number mean: 0.462149 max: 0.616143
DILUPBiCG:  Solving for Ux, Initial residual = 5.72433e-08, Final residual = 5.72433e-08, No Iterations 0
DILUPBiCG:  Solving for Uy, Initial residual = 0.675545, Final residual = 2.10413e-06, No Iterations 6
DICPCG:  Solving for p, Initial residual = 4.29784e-06, Final residual = 4.47791e-07, No Iterations 1
time step continuity errors : sum local = 4.41867e-09, global = 1.98835e-10, cumulative = 2.7335e-07
DICPCG:  Solving for p, Initial residual = 3.217e-06, Final residual = 4.54372e-07, No Iterations 1
time step continuity errors : sum local = 4.48361e-09, global = 1.32565e-10, cumulative = 2.73482e-07
ExecutionTime = 0.44 s  ClockTime = 0 s

Time = 2.375

Courant Number mean: 0.462149 max: 0.616143
DILUPBiCG:  Solving for Ux, Initial residual = 5.57282e-08, Final residual = 5.57282e-08, No Iterations 0
DILUPBiCG:  Solving for Uy, Initial residual = 0.876764, Final residual = 2.99262e-06, No Iterations 6
DICPCG:  Solving for p, Initial residual = 2.05418e-06, Final residual = 4.56175e-07, No Iterations 1
time step continuity errors : sum local = 4.50139e-09, global = 1.67803e-10, cumulative = 2.7365e-07
DICPCG:  Solving for p, Initial residual = 1.28943e-06, Final residual = 3.71884e-07, No Iterations 1
time step continuity errors : sum local = 3.66963e-09, global = 1.72691e-10, cumulative = 2.73823e-07
ExecutionTime = 0.44 s  ClockTime = 0 s

Time = 2.38

Courant Number mean: 0.462149 max: 0.616143
DILUPBiCG:  Solving for Ux, Initial residual = 5.43517e-08, Final residual = 5.43517e-08, No Iterations 0
DILUPBiCG:  Solving for Uy, Initial residual = 0.746583, Final residual = 2.36811e-06, No Iterations 6
DICPCG:  Solving for p, Initial residual = 1.93922e-06, Final residual = 2.62113e-07, No Iterations 1
time step continuity errors : sum local = 2.58645e-09, global = 1.90688e-10, cumulative = 2.74014e-07
DICPCG:  Solving for p, Initial residual = 1.4019e-06, Final residual = 2.73429e-07, No Iterations 1
time step continuity errors : sum local = 2.69811e-09, global = 1.61923e-10, cumulative = 2.74176e-07
ExecutionTime = 0.45 s  ClockTime = 0 s

Time = 2.385

Courant Number mean: 0.462149 max: 0.616143
DILUPBiCG:  Solving for Ux, Initial residual = 5.35126e-08, Final residual = 5.35126e-08, No Iterations 0
DILUPBiCG:  Solving for Uy, Initial residual = 0.89104, Final residual = 2.27664e-06, No Iterations 6
DICPCG:  Solving for p, Initial residual = 1.07926e-06, Final residual = 2.61433e-07, No Iterations 1
time step continuity errors : sum local = 2.57973e-09, global = 1.59334e-10, cumulative = 2.74335e-07
DICPCG:  Solving for p, Initial residual = 6.67894e-07, Final residual = 6.67894e-07, No Iterations 0
time step continuity errors : sum local = 6.59057e-09, global = 1.53097e-10, cumulative = 2.74488e-07
ExecutionTime = 0.45 s  ClockTime = 0 s

Time = 2.39

Courant Number mean: 0.462149 max: 0.616143
DILUPBiCG:  Solving for Ux, Initial residual = 5.30383e-08, Final residual = 5.30383e-08, No Iterations 0
DILUPBiCG:  Solving for Uy, Initial residual = 0.661587, Final residual = 2.01934e-06, No Iterations 6
DICPCG:  Solving for p, Initial residual = 3.43091e-06, Final residual = 3.92797e-07, No Iterations 1
time step continuity errors : sum local = 3.876e-09, global = 1.78406e-10, cumulative = 2.74666e-07
DICPCG:  Solving for p, Initial residual = 2.54248e-06, Final residual = 4.02209e-07, No Iterations 1
time step continuity errors : sum local = 3.96887e-09, global = 1.33955e-10, cumulative = 2.748e-07
ExecutionTime = 0.45 s  ClockTime = 0 s

Time = 2.395

Courant Number mean: 0.462149 max: 0.616143
DILUPBiCG:  Solving for Ux, Initial residual = 5.19409e-08, Final residual = 5.19409e-08, No Iterations 0
DILUPBiCG:  Solving for Uy, Initial residual = 0.888874, Final residual = 2.58274e-06, No Iterations 6
DICPCG:  Solving for p, Initial residual = 1.72418e-06, Final residual = 4.10421e-07, No Iterations 1
time step continuity errors : sum local = 4.04991e-09, global = 1.38296e-10, cumulative = 2.74939e-07
DICPCG:  Solving for p, Initial residual = 1.06137e-06, Final residual = 3.26481e-07, No Iterations 1
time step continuity errors : sum local = 3.22161e-09, global = 1.5083e-10, cumulative = 2.75089e-07
ExecutionTime = 0.45 s  ClockTime = 0 s

Time = 2.4

Courant Number mean: 0.462149 max: 0.616143
DILUPBiCG:  Solving for Ux, Initial residual = 5.06934e-08, Final residual = 5.06934e-08, No Iterations 0
DILUPBiCG:  Solving for Uy, Initial residual = 0.71644, Final residual = 2.09036e-06, No Iterations 6
DICPCG:  Solving for p, Initial residual = 1.72287e-06, Final residual = 2.27142e-07, No Iterations 1
time step continuity errors : sum local = 2.24137e-09, global = 1.49491e-10, cumulative = 2.75239e-07
DICPCG:  Solving for p, Initial residual = 1.24686e-06, Final residual = 2.37241e-07, No Iterations 1
time step continuity errors : sum local = 2.34101e-09, global = 1.25479e-10, cumulative = 2.75364e-07
ExecutionTime = 0.45 s  ClockTime = 0 s

Time = 2.405

Courant Number mean: 0.462149 max: 0.616143
DILUPBiCG:  Solving for Ux, Initial residual = 4.99253e-08, Final residual = 4.99253e-08, No Iterations 0
DILUPBiCG:  Solving for Uy, Initial residual = 0.884321, Final residual = 2.50993e-06, No Iterations 6
DICPCG:  Solving for p, Initial residual = 9.33025e-07, Final residual = 9.33025e-07, No Iterations 0
time step continuity errors : sum local = 9.20679e-09, global = 1.10935e-10, cumulative = 2.75475e-07
DICPCG:  Solving for p, Initial residual = 9.32189e-07, Final residual = 9.32189e-07, No Iterations 0
time step continuity errors : sum local = 9.19854e-09, global = 1.06442e-10, cumulative = 2.75582e-07
ExecutionTime = 0.45 s  ClockTime = 0 s

Time = 2.41

Courant Number mean: 0.462149 max: 0.616143
DILUPBiCG:  Solving for Ux, Initial residual = 4.91909e-08, Final residual = 4.91909e-08, No Iterations 0
DILUPBiCG:  Solving for Uy, Initial residual = 0.239301, Final residual = 6.02138e-06, No Iterations 5
DICPCG:  Solving for p, Initial residual = 1.57019e-06, Final residual = 2.3632e-07, No Iterations 1
time step continuity errors : sum local = 2.33193e-09, global = 8.68508e-11, cumulative = 2.75669e-07
DICPCG:  Solving for p, Initial residual = 1.13408e-06, Final residual = 2.43366e-07, No Iterations 1
time step continuity errors : sum local = 2.40145e-09, global = 9.55064e-11, cumulative = 2.75764e-07
ExecutionTime = 0.45 s  ClockTime = 0 s

Time = 2.415

Courant Number mean: 0.462149 max: 0.616143
DILUPBiCG:  Solving for Ux, Initial residual = 4.77154e-08, Final residual = 4.77154e-08, No Iterations 0
DILUPBiCG:  Solving for Uy, Initial residual = 0.833593, Final residual = 2.33457e-06, No Iterations 6
DICPCG:  Solving for p, Initial residual = 1.50178e-06, Final residual = 2.36634e-07, No Iterations 1
time step continuity errors : sum local = 2.33503e-09, global = 7.16304e-11, cumulative = 2.75836e-07
DICPCG:  Solving for p, Initial residual = 1.06542e-06, Final residual = 2.40417e-07, No Iterations 1
time step continuity errors : sum local = 2.37235e-09, global = 4.52972e-11, cumulative = 2.75881e-07
ExecutionTime = 0.45 s  ClockTime = 0 s

Time = 2.42

Courant Number mean: 0.462149 max: 0.616143
DILUPBiCG:  Solving for Ux, Initial residual = 4.70114e-08, Final residual = 4.70114e-08, No Iterations 0
DILUPBiCG:  Solving for Uy, Initial residual = 0.819713, Final residual = 2.22619e-06, No Iterations 6
DICPCG:  Solving for p, Initial residual = 9.62404e-07, Final residual = 9.62404e-07, No Iterations 0
time step continuity errors : sum local = 9.49669e-09, global = 2.19194e-11, cumulative = 2.75903e-07
DICPCG:  Solving for p, Initial residual = 9.62224e-07, Final residual = 9.62224e-07, No Iterations 0
time step continuity errors : sum local = 9.49492e-09, global = 1.13051e-11, cumulative = 2.75914e-07
ExecutionTime = 0.45 s  ClockTime = 0 s

Time = 2.425

Courant Number mean: 0.462149 max: 0.616143
DILUPBiCG:  Solving for Ux, Initial residual = 4.6502e-08, Final residual = 4.6502e-08, No Iterations 0
DILUPBiCG:  Solving for Uy, Initial residual = 0.229062, Final residual = 5.93562e-06, No Iterations 5
DICPCG:  Solving for p, Initial residual = 1.61672e-06, Final residual = 2.34748e-07, No Iterations 1
time step continuity errors : sum local = 2.31642e-09, global = -2.02639e-11, cumulative = 2.75894e-07
DICPCG:  Solving for p, Initial residual = 1.18193e-06, Final residual = 2.40827e-07, No Iterations 1
time step continuity errors : sum local = 2.3764e-09, global = -1.14565e-11, cumulative = 2.75883e-07
ExecutionTime = 0.45 s  ClockTime = 0 s

Time = 2.43

Courant Number mean: 0.462149 max: 0.616143
DILUPBiCG:  Solving for Ux, Initial residual = 4.52824e-08, Final residual = 4.52824e-08, No Iterations 0
DILUPBiCG:  Solving for Uy, Initial residual = 0.877766, Final residual = 2.51003e-06, No Iterations 6
DICPCG:  Solving for p, Initial residual = 1.48258e-06, Final residual = 2.36765e-07, No Iterations 1
time step continuity errors : sum local = 2.33632e-09, global = -3.97793e-11, cumulative = 2.75843e-07
DICPCG:  Solving for p, Initial residual = 1.05129e-06, Final residual = 2.39673e-07, No Iterations 1
time step continuity errors : sum local = 2.36501e-09, global = -6.41447e-11, cumulative = 2.75779e-07
ExecutionTime = 0.45 s  ClockTime = 0 s

Time = 2.435

Courant Number mean: 0.462149 max: 0.616143
DILUPBiCG:  Solving for Ux, Initial residual = 4.45216e-08, Final residual = 4.45216e-08, No Iterations 0
DILUPBiCG:  Solving for Uy, Initial residual = 0.75751, Final residual = 2.19028e-06, No Iterations 6
DICPCG:  Solving for p, Initial residual = 9.48062e-07, Final residual = 9.48062e-07, No Iterations 0
time step continuity errors : sum local = 9.35518e-09, global = -8.62872e-11, cumulative = 2.75692e-07
DICPCG:  Solving for p, Initial residual = 9.48638e-07, Final residual = 9.48638e-07, No Iterations 0
time step continuity errors : sum local = 9.36085e-09, global = -9.56973e-11, cumulative = 2.75597e-07
ExecutionTime = 0.46 s  ClockTime = 0 s

Time = 2.44

Courant Number mean: 0.462149 max: 0.616143
DILUPBiCG:  Solving for Ux, Initial residual = 4.39924e-08, Final residual = 4.39924e-08, No Iterations 0
DILUPBiCG:  Solving for Uy, Initial residual = 0.220512, Final residual = 6.02286e-06, No Iterations 5
DICPCG:  Solving for p, Initial residual = 1.58587e-06, Final residual = 2.33095e-07, No Iterations 1
time step continuity errors : sum local = 2.30011e-09, global = -1.24208e-10, cumulative = 2.75472e-07
DICPCG:  Solving for p, Initial residual = 1.15854e-06, Final residual = 2.38155e-07, No Iterations 1
time step continuity errors : sum local = 2.35004e-09, global = -1.10719e-10, cumulative = 2.75362e-07
ExecutionTime = 0.46 s  ClockTime = 0 s

Time = 2.445

Courant Number mean: 0.462149 max: 0.616143
DILUPBiCG:  Solving for Ux, Initial residual = 4.30141e-08, Final residual = 4.30141e-08, No Iterations 0
DILUPBiCG:  Solving for Uy, Initial residual = 0.909019, Final residual = 2.63401e-06, No Iterations 6
DICPCG:  Solving for p, Initial residual = 1.45525e-06, Final residual = 2.33922e-07, No Iterations 1
time step continuity errors : sum local = 2.30827e-09, global = -1.33896e-10, cumulative = 2.75228e-07
DICPCG:  Solving for p, Initial residual = 1.03397e-06, Final residual = 2.36603e-07, No Iterations 1
time step continuity errors : sum local = 2.33472e-09, global = -1.52384e-10, cumulative = 2.75075e-07
ExecutionTime = 0.46 s  ClockTime = 0 s

Time = 2.45

Courant Number mean: 0.462149 max: 0.616143
DILUPBiCG:  Solving for Ux, Initial residual = 4.22102e-08, Final residual = 4.22102e-08, No Iterations 0
DILUPBiCG:  Solving for Uy, Initial residual = 0.710851, Final residual = 2.14527e-06, No Iterations 6
DICPCG:  Solving for p, Initial residual = 9.22305e-07, Final residual = 9.22305e-07, No Iterations 0
time step continuity errors : sum local = 9.10102e-09, global = -1.67619e-10, cumulative = 2.74908e-07
DICPCG:  Solving for p, Initial residual = 9.23552e-07, Final residual = 9.23552e-07, No Iterations 0
time step continuity errors : sum local = 9.11332e-09, global = -1.71703e-10, cumulative = 2.74736e-07
ExecutionTime = 0.46 s  ClockTime = 0 s

Time = 2.455

Courant Number mean: 0.462149 max: 0.616143
DILUPBiCG:  Solving for Ux, Initial residual = 4.1617e-08, Final residual = 4.1617e-08, No Iterations 0
DILUPBiCG:  Solving for Uy, Initial residual = 0.213693, Final residual = 6.0547e-06, No Iterations 5
DICPCG:  Solving for p, Initial residual = 1.53822e-06, Final residual = 2.29934e-07, No Iterations 1
time step continuity errors : sum local = 2.26891e-09, global = -1.92741e-10, cumulative = 2.74543e-07
DICPCG:  Solving for p, Initial residual = 1.12214e-06, Final residual = 2.34155e-07, No Iterations 1
time step continuity errors : sum local = 2.31057e-09, global = -1.73198e-10, cumulative = 2.7437e-07
ExecutionTime = 0.46 s  ClockTime = 0 s

Time = 2.46

Courant Number mean: 0.462149 max: 0.616143
DILUPBiCG:  Solving for Ux, Initial residual = 4.08173e-08, Final residual = 4.08173e-08, No Iterations 0
DILUPBiCG:  Solving for Uy, Initial residual = 0.928183, Final residual = 2.72316e-06, No Iterations 6
DICPCG:  Solving for p, Initial residual = 1.41759e-06, Final residual = 2.2934e-07, No Iterations 1
time step continuity errors : sum local = 2.26306e-09, global = -1.88835e-10, cumulative = 2.74181e-07
DICPCG:  Solving for p, Initial residual = 1.00904e-06, Final residual = 2.31683e-07, No Iterations 1
time step continuity errors : sum local = 2.28618e-09, global = -2.00677e-10, cumulative = 2.73981e-07
ExecutionTime = 0.46 s  ClockTime = 0 s

Time = 2.465

Courant Number mean: 0.462149 max: 0.616143
DILUPBiCG:  Solving for Ux, Initial residual = 3.99937e-08, Final residual = 3.99937e-08, No Iterations 0
DILUPBiCG:  Solving for Uy, Initial residual = 0.675522, Final residual = 2.0979e-06, No Iterations 6
DICPCG:  Solving for p, Initial residual = 8.90613e-07, Final residual = 8.90613e-07, No Iterations 0
time step continuity errors : sum local = 8.78828e-09, global = -2.07762e-10, cumulative = 2.73773e-07
DICPCG:  Solving for p, Initial residual = 8.92359e-07, Final residual = 8.92359e-07, No Iterations 0
time step continuity errors : sum local = 8.80551e-09, global = -2.05619e-10, cumulative = 2.73567e-07
ExecutionTime = 0.46 s  ClockTime = 0 s

Time = 2.47

Courant Number mean: 0.462149 max: 0.616144
DILUPBiCG:  Solving for Ux, Initial residual = 3.93647e-08, Final residual = 3.93647e-08, No Iterations 0
DILUPBiCG:  Solving for Uy, Initial residual = 0.207854, Final residual = 6.05766e-06, No Iterations 5
DICPCG:  Solving for p, Initial residual = 1.48129e-06, Final residual = 2.25151e-07, No Iterations 1
time step continuity errors : sum local = 2.22172e-09, global = -2.17633e-10, cumulative = 2.7335e-07
DICPCG:  Solving for p, Initial residual = 1.07896e-06, Final residual = 2.28595e-07, No Iterations 1
time step continuity errors : sum local = 2.25571e-09, global = -1.91363e-10, cumulative = 2.73158e-07
ExecutionTime = 0.46 s  ClockTime = 0 s

Time = 2.475

Courant Number mean: 0.462149 max: 0.616143
DILUPBiCG:  Solving for Ux, Initial residual = 3.86777e-08, Final residual = 3.86777e-08, No Iterations 0
DILUPBiCG:  Solving for Uy, Initial residual = 0.932193, Final residual = 2.76913e-06, No Iterations 6
DICPCG:  Solving for p, Initial residual = 1.37172e-06, Final residual = 2.2322e-07, No Iterations 1
time step continuity errors : sum local = 2.20267e-09, global = -1.97895e-10, cumulative = 2.7296e-07
DICPCG:  Solving for p, Initial residual = 9.78121e-07, Final residual = 9.78121e-07, No Iterations 0
time step continuity errors : sum local = 9.65178e-09, global = -1.86601e-10, cumulative = 2.72774e-07
ExecutionTime = 0.46 s  ClockTime = 0 s

Time = 2.48

Courant Number mean: 0.462149 max: 0.616144
DILUPBiCG:  Solving for Ux, Initial residual = 3.85948e-08, Final residual = 3.85948e-08, No Iterations 0
DILUPBiCG:  Solving for Uy, Initial residual = 0.626573, Final residual = 2.24765e-06, No Iterations 6
DICPCG:  Solving for p, Initial residual = 4.82329e-06, Final residual = 4.53335e-07, No Iterations 1
time step continuity errors : sum local = 4.47337e-09, global = -2.41974e-10, cumulative = 2.72532e-07
DICPCG:  Solving for p, Initial residual = 3.59266e-06, Final residual = 4.40544e-07, No Iterations 1
time step continuity errors : sum local = 4.34715e-09, global = -1.60731e-10, cumulative = 2.72371e-07
ExecutionTime = 0.46 s  ClockTime = 0 s

Time = 2.485

Courant Number mean: 0.462149 max: 0.616143
DILUPBiCG:  Solving for Ux, Initial residual = 3.72974e-08, Final residual = 3.72974e-08, No Iterations 0
DILUPBiCG:  Solving for Uy, Initial residual = 0.887027, Final residual = 3.50641e-06, No Iterations 6
DICPCG:  Solving for p, Initial residual = 2.13782e-06, Final residual = 4.07101e-07, No Iterations 1
time step continuity errors : sum local = 4.01715e-09, global = -1.99155e-10, cumulative = 2.72172e-07
DICPCG:  Solving for p, Initial residual = 1.45786e-06, Final residual = 3.74846e-07, No Iterations 1
time step continuity errors : sum local = 3.69887e-09, global = -2.08447e-10, cumulative = 2.71964e-07
ExecutionTime = 0.46 s  ClockTime = 0 s

Time = 2.49

Courant Number mean: 0.462149 max: 0.616143
DILUPBiCG:  Solving for Ux, Initial residual = 3.65769e-08, Final residual = 3.65769e-08, No Iterations 0
DILUPBiCG:  Solving for Uy, Initial residual = 0.646842, Final residual = 2.23679e-06, No Iterations 6
DICPCG:  Solving for p, Initial residual = 1.63445e-06, Final residual = 3.09772e-07, No Iterations 1
time step continuity errors : sum local = 3.05673e-09, global = -2.07999e-10, cumulative = 2.71756e-07
DICPCG:  Solving for p, Initial residual = 1.13255e-06, Final residual = 3.00861e-07, No Iterations 1
time step continuity errors : sum local = 2.9688e-09, global = -1.78168e-10, cumulative = 2.71577e-07
ExecutionTime = 0.46 s  ClockTime = 0 s

Time = 2.495

Courant Number mean: 0.462149 max: 0.616143
DILUPBiCG:  Solving for Ux, Initial residual = 3.58885e-08, Final residual = 3.58885e-08, No Iterations 0
DILUPBiCG:  Solving for Uy, Initial residual = 0.944948, Final residual = 2.68115e-06, No Iterations 6
DICPCG:  Solving for p, Initial residual = 1.28453e-06, Final residual = 2.60538e-07, No Iterations 1
time step continuity errors : sum local = 2.57091e-09, global = -1.49559e-10, cumulative = 2.71428e-07
DICPCG:  Solving for p, Initial residual = 8.78199e-07, Final residual = 8.78199e-07, No Iterations 0
time step continuity errors : sum local = 8.66578e-09, global = -1.31756e-10, cumulative = 2.71296e-07
ExecutionTime = 0.46 s  ClockTime = 0 s

Time = 2.5

Courant Number mean: 0.462149 max: 0.616144
DILUPBiCG:  Solving for Ux, Initial residual = 3.55118e-08, Final residual = 3.55118e-08, No Iterations 0
DILUPBiCG:  Solving for Uy, Initial residual = 0.621779, Final residual = 2.21544e-06, No Iterations 6
DICPCG:  Solving for p, Initial residual = 4.3483e-06, Final residual = 4.56936e-07, No Iterations 1
time step continuity errors : sum local = 4.50891e-09, global = -1.7036e-10, cumulative = 2.71126e-07
DICPCG:  Solving for p, Initial residual = 3.25005e-06, Final residual = 4.58146e-07, No Iterations 1
time step continuity errors : sum local = 4.52085e-09, global = -6.93641e-11, cumulative = 2.71056e-07
ExecutionTime = 0.47 s  ClockTime = 0 s

End

